# generated using pymatgen
data_ZnH10C16(NO)4
_symmetry_space_group_name_H-M   'P 1'
_cell_length_a   13.91820457
_cell_length_b   13.91822407
_cell_length_c   21.35968260
_cell_angle_alpha   100.54418533
_cell_angle_beta   100.54386726
_cell_angle_gamma   111.61572153
_symmetry_Int_Tables_number   1
_chemical_formula_structural   ZnH10C16(NO)4
_chemical_formula_sum   'Zn8 H80 C128 N32 O32'
_cell_volume   3637.09286939
_cell_formula_units_Z   8
loop_
 _symmetry_equiv_pos_site_id
 _symmetry_equiv_pos_as_xyz
  1  'x, y, z'
loop_
 _atom_site_type_symbol
 _atom_site_label
 _atom_site_symmetry_multiplicity
 _atom_site_fract_x
 _atom_site_fract_y
 _atom_site_fract_z
 _atom_site_occupancy
 _atom_site_pbe_bader_charge
 _atom_site_pbe_bader_spin_density
 _atom_site_pbe_cm5_charge
 _atom_site_pbe_ddec_charge
 _atom_site_pbe_ddec_spin_density
 _atom_site_pbe_ddec_sum_bond_order
 _atom_site_pbe_magmom
Zn  Zn0  1  0.92687796  0.89214482  0.41955525  1  1.275571  0  0.71047  0.780635  0  2.372724  0
Zn  Zn1  1  0.10786182  0.07312489  0.08044329  1  1.275712  0  0.710487  0.780669  0  2.372668  0
Zn  Zn2  1  0.07312166  0.10785565  0.58044371  1  1.275722  0  0.710475  0.780666  0  2.37276  0
Zn  Zn3  1  0.89213852  0.92687293  0.91955123  1  1.275562  0  0.710431  0.780636  0  2.372717  0
Zn  Zn4  1  0.43490694  0.40212510  0.65659876  1  1.322549  0  0.711025  0.894887  0  2.32143  0
Zn  Zn5  1  0.59787611  0.56509688  0.84340032  1  1.322503  0  0.711026  0.894902  0  2.321409  0
Zn  Zn6  1  0.56509737  0.59787067  0.34340208  1  1.322577  0  0.711037  0.894907  0  2.321541  0
Zn  Zn7  1  0.40212110  0.43490263  0.15659965  1  1.322575  0  0.711035  0.894861  0  2.321499  0
H  H8  1  0.93675991  0.57862481  0.36975430  1  0.09124  0  0.104526  0.108181  0  1.002714  0
H  H9  1  0.42137919  0.06324250  0.13024656  1  0.091215  0  0.104524  0.108184  0  1.002751  0
H  H10  1  0.06324701  0.42138152  0.63025043  1  0.091125  0  0.104506  0.10813  0  1.002719  0
H  H11  1  0.57861311  0.93675066  0.86975021  1  0.09061  0  0.104489  0.108084  0  1.002795  0
H  H12  1  0.99069063  0.42681819  0.36367239  1  0.052676  0  0.107586  0.11822  0  0.996168  0
H  H13  1  0.57318455  0.00931240  0.13632847  1  0.052606  0  0.107586  0.118222  0  0.996238  0
H  H14  1  0.00931792  0.57319023  0.63632997  1  0.052617  0  0.107562  0.118188  0  0.996212  0
H  H15  1  0.42680697  0.99068046  0.86367285  1  0.052783  0  0.107543  0.118134  0  0.996183  0
H  H16  1  0.23591444  0.60349397  0.54892004  1  0.038326  0  0.103907  0.10932  0  1.011402  0
H  H17  1  0.39650627  0.76408886  0.95108241  1  0.038444  0  0.10388  0.109313  0  1.011367  0
H  H18  1  0.76409156  0.39650541  0.45108564  1  0.038544  0  0.103904  0.109332  0  1.011376  0
H  H19  1  0.60349249  0.23590762  0.04891878  1  0.038552  0  0.103904  0.10935  0  1.011347  0
H  H20  1  0.17716691  0.75229640  0.55501780  1  0.074869  0  0.106966  0.112269  0  0.98772  0
H  H21  1  0.24770529  0.82283522  0.94498554  1  0.074815  0  0.106934  0.112191  0  0.987739  0
H  H22  1  0.82283831  0.24770340  0.44498877  1  0.074749  0  0.106913  0.112191  0  0.987706  0
H  H23  1  0.75229739  0.17715916  0.05501353  1  0.074749  0  0.106909  0.112197  0  0.987671  0
H  H24  1  0.04640399  0.08502757  0.30706661  1  0.136479  0  0.100936  0.108631  0  1.048267  0
H  H25  1  0.91497181  0.95360266  0.19292932  1  0.136584  0  0.10096  0.108741  0  1.048234  0
H  H26  1  0.95359635  0.91496808  0.69293467  1  0.136558  0  0.100941  0.108695  0  1.048219  0
H  H27  1  0.08502953  0.04640435  0.80707108  1  0.136455  0  0.100932  0.108674  0  1.048167  0
H  H28  1  0.05629051  0.20455790  0.41390160  1  0.120292  0  0.102202  0.121851  0  1.02636  0
H  H29  1  0.79543663  0.94370891  0.08609451  1  0.120351  0  0.102192  0.121854  0  1.026348  0
H  H30  1  0.94370827  0.79544004  0.58609790  1  0.120269  0  0.102225  0.121921  0  1.026287  0
H  H31  1  0.20456712  0.05629906  0.91390676  1  0.120544  0  0.10222  0.121925  0  1.026223  0
H  H32  1  0.20440475  0.48252172  0.34547957  1  0.08168  0  0.110772  0.127523  0  0.991594  0
H  H33  1  0.51747945  0.79559395  0.15451889  1  0.081689  0  0.110786  0.127557  0  0.991582  0
H  H34  1  0.79560189  0.51747131  0.65451747  1  0.081621  0  0.110767  0.127492  0  0.991483  0
H  H35  1  0.48252394  0.20439705  0.84547425  1  0.081651  0  0.110754  0.127443  0  0.991562  0
H  H36  1  0.18394091  0.36221850  0.23698489  1  0.108046  0  0.109243  0.120641  0  0.998562  0
H  H37  1  0.63778320  0.81605719  0.26301525  1  0.108305  0  0.109247  0.120651  0  0.998548  0
H  H38  1  0.81604812  0.63777044  0.76301240  1  0.108211  0  0.109218  0.120646  0  0.998523  0
H  H39  1  0.36221711  0.18393843  0.73698135  1  0.10822  0  0.109265  0.120665  0  0.998461  0
H  H40  1  0.36362653  0.52272696  0.45026781  1  0.271715  0  0.148228  0.146889  0  1.035642  0
H  H41  1  0.47726986  0.63637207  0.04973506  1  0.271596  0  0.148166  0.146779  0  1.035653  0
H  H42  1  0.63637620  0.47726891  0.54973473  1  0.271569  0  0.148192  0.146802  0  1.035602  0
H  H43  1  0.52272651  0.36362421  0.95026958  1  0.271726  0  0.148209  0.146791  0  1.035645  0
H  H44  1  0.18206981  0.35277678  0.56699002  1  0.254691  0  0.145793  0.135798  0  1.041104  0
H  H45  1  0.64722002  0.81792624  0.93301221  1  0.254444  0  0.145784  0.135758  0  1.041136  0
H  H46  1  0.81793136  0.64722067  0.43301345  1  0.254381  0  0.145788  0.135727  0  1.041164  0
H  H47  1  0.35277467  0.18206570  0.06698891  1  0.254254  0  0.145749  0.135728  0  1.041185  0
H  H48  1  0.56936116  0.59492501  0.59899883  1  0.159221  0  0.104684  0.095045  0  1.096466  0
H  H49  1  0.40507866  0.43063733  0.90099626  1  0.159161  0  0.104695  0.095083  0  1.0965  0
H  H50  1  0.43063522  0.40507343  0.40099670  1  0.159226  0  0.1047  0.095106  0  1.096499  0
H  H51  1  0.59492330  0.56936041  0.09900218  1  0.159182  0  0.104686  0.095048  0  1.096504  0
H  H52  1  0.59230356  0.72027849  0.52841465  1  0.122016  0  0.104645  0.115318  0  1.018737  0
H  H53  1  0.27972984  0.40769620  0.97158368  1  0.122057  0  0.10466  0.115349  0  1.018644  0
H  H54  1  0.40769526  0.27972238  0.47158239  1  0.122069  0  0.104678  0.115403  0  1.018723  0
H  H55  1  0.72027457  0.59230472  0.02841684  1  0.122053  0  0.104672  0.115382  0  1.018629  0
H  H56  1  0.67727940  0.98258102  0.70129961  1  0.076641  0  0.111212  0.121859  0  0.984886  0
H  H57  1  0.01742111  0.32271951  0.79869915  1  0.07656  0  0.111215  0.121852  0  0.98488  0
H  H58  1  0.32272091  0.01741462  0.29869886  1  0.076575  0  0.111184  0.121828  0  0.984889  0
H  H59  1  0.98257688  0.67727813  0.20130350  1  0.076688  0  0.11118  0.12185  0  0.984942  0
H  H60  1  0.65225905  0.85490219  0.77152034  1  0.07863  0  0.109717  0.118864  0  0.999055  0
H  H61  1  0.14509887  0.34774119  0.72847686  1  0.078589  0  0.109686  0.118834  0  0.999046  0
H  H62  1  0.34774368  0.14509440  0.22847759  1  0.078608  0  0.10973  0.118878  0  0.999032  0
H  H63  1  0.85489506  0.65225409  0.27152082  1  0.078663  0  0.109774  0.118949  0  0.999078  0
H  H64  1  0.69533647  0.27035009  0.55943784  1  0.095705  0  0.099072  0.100145  0  1.031673  0
H  H65  1  0.72965750  0.30466975  0.94056762  1  0.095724  0  0.09908  0.100178  0  1.031628  0
H  H66  1  0.30466069  0.72964648  0.44056224  1  0.095662  0  0.099068  0.100116  0  1.031663  0
H  H67  1  0.27034710  0.69533930  0.05943809  1  0.095729  0  0.09904  0.100125  0  1.031708  0
H  H68  1  0.75183556  0.12129889  0.54141114  1  0.078523  0  0.100536  0.107008  0  1.042315  0
H  H69  1  0.87870277  0.24816498  0.95858976  1  0.078511  0  0.100523  0.106993  0  1.042202  0
H  H70  1  0.24816248  0.87870096  0.45859271  1  0.078466  0  0.100497  0.106947  0  1.042303  0
H  H71  1  0.12130019  0.75184267  0.04141138  1  0.078526  0  0.100519  0.107026  0  1.042202  0
H  H72  1  0.48539343  0.92941751  0.60620865  1  0.0817  0  0.107016  0.117351  0  0.994958  0
H  H73  1  0.07058799  0.51460774  0.89379104  1  0.081585  0  0.106994  0.117331  0  0.995051  0
H  H74  1  0.51461089  0.07057827  0.39379312  1  0.081789  0  0.107018  0.117386  0  0.994926  0
H  H75  1  0.92941008  0.48539576  0.10620623  1  0.081631  0  0.106978  0.117384  0  0.994944  0
H  H76  1  0.43203137  0.08143347  0.62521565  1  0.095068  0  0.107439  0.114348  0  0.993519  0
H  H77  1  0.91857632  0.56796921  0.87478393  1  0.095073  0  0.107429  0.114354  0  0.993462  0
H  H78  1  0.56796493  0.91856055  0.37478216  1  0.095072  0  0.107414  0.114312  0  0.993568  0
H  H79  1  0.08141933  0.43203260  0.12521425  1  0.095134  0  0.107428  0.114334  0  0.993592  0
H  H80  1  0.87409170  0.04238699  0.64281503  1  0.274256  0  0.167889  0.161292  0  0.951332  0
H  H81  1  0.95761196  0.12590166  0.85718245  1  0.274138  0  0.167861  0.161234  0  0.951478  0
H  H82  1  0.12590628  0.95761137  0.35718442  1  0.274189  0  0.167894  0.161319  0  0.951385  0
H  H83  1  0.04238365  0.87409721  0.14281819  1  0.274254  0  0.167871  0.161298  0  0.951337  0
H  H84  1  0.68890023  0.85129066  0.44610846  1  0.245554  0  0.155788  0.144127  0  1.005602  0
H  H85  1  0.14870977  0.31109910  0.05388883  1  0.245265  0  0.155816  0.1442  0  1.005604  0
H  H86  1  0.31110581  0.14871238  0.55389062  1  0.245418  0  0.155798  0.144125  0  1.005581  0
H  H87  1  0.85128831  0.68890442  0.94611031  1  0.245567  0  0.15581  0.144189  0  1.005652  0
C  C88  1  0.02352864  0.76855585  0.46752257  1  1.527183  0  0.186803  0.540898  0  4.25771  0
C  C89  1  0.23144785  0.97647990  0.03247869  1  1.526281  0  0.186901  0.541033  0  4.257505  0
C  C90  1  0.97648141  0.23144879  0.53247765  1  1.526248  0  0.187009  0.541209  0  4.257358  0
C  C91  1  0.76855333  0.02351972  0.96751708  1  1.526554  0  0.186898  0.541107  0  4.257678  0
C  C92  1  0.05426302  0.67599861  0.46278023  1  0.044387  0  -0.035968  -0.072341  0  4.019922  0
C  C93  1  0.32400546  0.94574120  0.03722080  1  0.044398  0  -0.036003  -0.072345  0  4.019856  0
C  C94  1  0.94574305  0.32400518  0.53722363  1  0.044382  0  -0.036089  -0.072395  0  4.019849  0
C  C95  1  0.67599007  0.05425398  0.96277706  1  0.044601  0  -0.036142  -0.072375  0  4.019812  0
C  C96  1  0.00203166  0.58345995  0.40899583  1  -0.05662  0  -0.087206  -0.078688  0  4.004072  0
C  C97  1  0.41654319  0.99797015  0.09100707  1  -0.057115  0  -0.087168  -0.078712  0  4.004112  0
C  C98  1  0.99797369  0.41654721  0.59100834  1  -0.057037  0  -0.08709  -0.078619  0  4.004017  0
C  C99  1  0.58344989  0.00202187  0.90899199  1  -0.056629  0  -0.087021  -0.078578  0  4.003925  0
C  C100  1  0.03242302  0.49869386  0.40522923  1  -0.008963  0  -0.09679  -0.177745  0  3.998811  0
C  C101  1  0.50130947  0.96758023  0.09477272  1  -0.008301  0  -0.09681  -0.17777  0  3.998814  0
C  C102  1  0.96758551  0.50131383  0.59477258  1  -0.008246  0  -0.09675  -0.177712  0  3.99884  0
C  C103  1  0.49868854  0.03241889  0.90523058  1  -0.008504  0  -0.096768  -0.177665  0  3.998892  0
C  C104  1  0.11819848  0.50556362  0.45499905  1  0.300803  0  0.102549  0.172894  0  4.043293  0
C  C105  1  0.49443752  0.88180396  0.04500145  1  0.300657  0  0.102555  0.17299  0  4.043289  0
C  C106  1  0.88180914  0.49443786  0.54500331  1  0.30038  0  0.10254  0.173056  0  4.043333  0
C  C107  1  0.50556124  0.11819325  0.95499843  1  0.300618  0  0.102529  0.172993  0  4.043478  0
C  C108  1  0.17030906  0.59728743  0.50945579  1  0.027068  0  -0.102477  -0.19479  0  4.012861  0
C  C109  1  0.40270940  0.82969389  0.99054773  1  0.026932  0  -0.102462  -0.194919  0  4.012955  0
C  C110  1  0.82969529  0.40270910  0.49054982  1  0.026925  0  -0.102468  -0.194969  0  4.013257  0
C  C111  1  0.59728770  0.17029973  0.00945199  1  0.02682  0  -0.102479  -0.194978  0  4.013186  0
C  C112  1  0.13765472  0.68079689  0.51300258  1  -0.061235  0  -0.080625  -0.062448  0  3.985163  0
C  C113  1  0.31920261  0.86234617  0.98700170  1  -0.060938  0  -0.080577  -0.062266  0  3.985156  0
C  C114  1  0.86234975  0.31920554  0.48700280  1  -0.060811  0  -0.080553  -0.062262  0  3.98532  0
C  C115  1  0.68079290  0.13764828  0.01299701  1  -0.060818  0  -0.080521  -0.062259  0  3.985326  0
C  C116  1  0.10972061  0.14502192  0.20325685  1  1.547703  0  0.198198  0.567224  0  4.207928  0
C  C117  1  0.85497591  0.89028085  0.29674109  1  1.547181  0  0.19817  0.567207  0  4.207806  0
C  C118  1  0.89027233  0.85496273  0.79674133  1  1.54784  0  0.198335  0.567585  0  4.207225  0
C  C119  1  0.14502530  0.10971952  0.70325711  1  1.547056  0  0.198255  0.567399  0  4.207656  0
C  C120  1  0.11498114  0.21686353  0.26624416  1  -0.069138  0  -0.016216  -0.030373  0  3.961653  0
C  C121  1  0.78313866  0.88502396  0.23375485  1  -0.06902  0  -0.016168  -0.030223  0  3.961556  0
C  C122  1  0.88501591  0.78312788  0.73375483  1  -0.069626  0  -0.016172  -0.030257  0  3.961477  0
C  C123  1  0.21686660  0.11497950  0.76624560  1  -0.068963  0  -0.016231  -0.030446  0  3.961732  0
C  C124  1  0.08011376  0.17214578  0.31604945  1  -0.036677  0  -0.081824  -0.076199  0  3.948739  0
C  C125  1  0.82785599  0.91989067  0.18395316  1  -0.03648  0  -0.081925  -0.07646  0  3.948795  0
C  C126  1  0.91987859  0.82784888  0.68395359  1  -0.036863  0  -0.081881  -0.076344  0  3.94876  0
C  C127  1  0.17214946  0.08012237  0.81604891  1  -0.03596  0  -0.081841  -0.076232  0  3.948896  0
C  C128  1  0.08674163  0.23841825  0.37560339  1  -0.084086  0  -0.096314  -0.167036  0  3.978552  0
C  C129  1  0.76158448  0.91326458  0.12439638  1  -0.08431  0  -0.096227  -0.166899  0  3.978277  0
C  C130  1  0.91325638  0.76158158  0.62439484  1  -0.084053  0  -0.096303  -0.167059  0  3.978331  0
C  C131  1  0.23842345  0.08675309  0.87560466  1  -0.084801  0  -0.096288  -0.167049  0  3.978534  0
C  C132  1  0.13158453  0.34963379  0.38549715  1  0.29578  0  0.083963  0.133117  0  4.044571  0
C  C133  1  0.65036768  0.86841066  0.11450223  1  0.29597  0  0.084013  0.133112  0  4.044619  0
C  C134  1  0.86840712  0.65036642  0.61450272  1  0.295985  0  0.084005  0.133024  0  4.04477  0
C  C135  1  0.34963520  0.13159331  0.88549800  1  0.295985  0  0.083984  0.132983  0  4.04491  0
C  C136  1  0.16715888  0.39542501  0.33626582  1  -0.055946  0  -0.087597  -0.158536  0  3.972675  0
C  C137  1  0.60457530  0.83283959  0.16373289  1  -0.055794  0  -0.08765  -0.158638  0  3.972751  0
C  C138  1  0.83283661  0.60456797  0.66373224  1  -0.055684  0  -0.087638  -0.158403  0  3.9726  0
C  C139  1  0.39543002  0.16716754  0.83626613  1  -0.055895  0  -0.087618  -0.158419  0  3.97276  0
C  C140  1  0.15682865  0.32853885  0.27609327  1  0.042967  0  -0.080033  -0.072502  0  3.943938  0
C  C141  1  0.67145972  0.84317096  0.22390667  1  0.042755  0  -0.080054  -0.072528  0  3.943667  0
C  C142  1  0.84315715  0.67144733  0.72390425  1  0.04259  0  -0.079965  -0.072559  0  3.943611  0
C  C143  1  0.32854802  0.15683714  0.77609509  1  0.042708  0  -0.080024  -0.072468  0  3.94375  0
C  C144  1  0.34367454  0.48180790  0.48813834  1  0.92155  0  0.168911  0.062554  0  3.859476  0
C  C145  1  0.51818618  0.65632055  0.01186140  1  0.921616  0  0.168991  0.062714  0  3.859444  0
C  C146  1  0.65632662  0.51818954  0.51186372  1  0.921498  0  0.168994  0.062776  0  3.859575  0
C  C147  1  0.48180933  0.34367245  0.98814087  1  0.921631  0  0.168902  0.062612  0  3.859616  0
C  C148  1  0.24933641  0.39608264  0.54881069  1  0.924971  0  0.170487  0.082343  0  3.856124  0
C  C149  1  0.60391441  0.75066150  0.95119268  1  0.925676  0  0.170446  0.082271  0  3.856164  0
C  C150  1  0.75066474  0.60391334  0.45119401  1  0.925904  0  0.170543  0.08245  0  3.856225  0
C  C151  1  0.39608108  0.24933076  0.04880904  1  0.925746  0  0.170428  0.082255  0  3.856016  0
C  C152  1  0.59039448  0.63647732  0.72856498  1  1.570581  0  0.221449  0.599723  0  4.169757  0
C  C153  1  0.36352487  0.40960930  0.77143061  1  1.570206  0  0.221646  0.600013  0  4.169633  0
C  C154  1  0.40960753  0.36352338  0.27143429  1  1.570653  0  0.221586  0.599952  0  4.169717  0
C  C155  1  0.63647560  0.59039442  0.22856650  1  1.570144  0  0.221537  0.599886  0  4.169503  0
C  C156  1  0.60747636  0.71642244  0.68905449  1  -0.093847  0  -0.019093  -0.047158  0  3.965367  0
C  C157  1  0.28357919  0.39252250  0.81094291  1  -0.093656  0  -0.018972  -0.047028  0  3.965252  0
C  C158  1  0.39252321  0.28357582  0.31094421  1  -0.093796  0  -0.01904  -0.047161  0  3.965485  0
C  C159  1  0.71642120  0.60747682  0.18905554  1  -0.093827  0  -0.018999  -0.047008  0  3.965334  0
C  C160  1  0.59398408  0.67985550  0.62117344  1  0.009716  0  -0.082461  -0.070697  0  3.978804  0
C  C161  1  0.32015180  0.40601937  0.87882138  1  0.00985  0  -0.082457  -0.070761  0  3.978628  0
C  C162  1  0.40601639  0.32014895  0.37882141  1  0.009882  0  -0.08248  -0.070779  0  3.978721  0
C  C163  1  0.67985022  0.59398205  0.12117563  1  0.009956  0  -0.082474  -0.070794  0  3.978728  0
C  C164  1  0.60675669  0.74997480  0.58170307  1  -0.092766  0  -0.095496  -0.166242  0  3.986811  0
C  C165  1  0.25003171  0.39324628  0.91829499  1  -0.092903  0  -0.095559  -0.166329  0  3.986378  0
C  C166  1  0.39324376  0.25002747  0.41829667  1  -0.092836  0  -0.095584  -0.166426  0  3.986558  0
C  C167  1  0.74997033  0.60675589  0.08170446  1  -0.092988  0  -0.095549  -0.166296  0  3.986509  0
C  C168  1  0.63625903  0.85853146  0.61089278  1  0.305019  0  0.088171  0.142951  0  4.055996  0
C  C169  1  0.14147413  0.36374241  0.88910653  1  0.304973  0  0.088028  0.142691  0  4.056225  0
C  C170  1  0.36373905  0.14147205  0.38910589  1  0.304935  0  0.088095  0.142881  0  4.056089  0
C  C171  1  0.85852635  0.63626061  0.11089611  1  0.304712  0  0.088066  0.142792  0  4.056068  0
C  C172  1  0.65259577  0.89723387  0.67910330  1  -0.024777  0  -0.090855  -0.164767  0  3.984508  0
C  C173  1  0.10276761  0.34740549  0.82089649  1  -0.024651  0  -0.090843  -0.164698  0  3.984409  0
C  C174  1  0.34740699  0.10276420  0.32089622  1  -0.024815  0  -0.090804  -0.1647  0  3.984503  0
C  C175  1  0.89723199  0.65259352  0.17910511  1  -0.024525  0  -0.090833  -0.164766  0  3.984432  0
C  C176  1  0.63757354  0.82585178  0.71817587  1  0.03428  0  -0.073478  -0.059986  0  3.940536  0
C  C177  1  0.17414867  0.36243036  0.78182260  1  0.034265  0  -0.073463  -0.05995  0  3.940345  0
C  C178  1  0.36242754  0.17414196  0.28182200  1  0.034215  0  -0.073499  -0.05998  0  3.940495  0
C  C179  1  0.82584935  0.63756948  0.21817797  1  0.034152  0  -0.073525  -0.060057  0  3.940437  0
C  C180  1  0.53428625  0.28131322  0.60855617  1  1.544413  0  0.195622  0.557625  0  4.233707  0
C  C181  1  0.71869663  0.46572260  0.89144317  1  1.544927  0  0.195495  0.557553  0  4.233419  0
C  C182  1  0.46571580  0.71869040  0.39144065  1  1.544614  0  0.195678  0.55768  0  4.233481  0
C  C183  1  0.28130381  0.53427821  0.10855873  1  1.544896  0  0.19559  0.55774  0  4.233714  0
C  C184  1  0.56163322  0.18690398  0.59468669  1  -0.034567  0  -0.031567  -0.065659  0  4.006296  0
C  C185  1  0.81310600  0.43837693  0.90531540  1  -0.03512  0  -0.031391  -0.065556  0  4.005909  0
C  C186  1  0.43836231  0.81309193  0.40530891  1  -0.03444  0  -0.031585  -0.065614  0  4.006292  0
C  C187  1  0.18689290  0.56162692  0.09468669  1  -0.034911  0  -0.031468  -0.065727  0  4.006036  0
C  C188  1  0.65032330  0.19563301  0.57017117  1  -0.011068  0  -0.080817  -0.056353  0  3.97406  0
C  C189  1  0.80437369  0.34968285  0.92983272  1  -0.010584  0  -0.080973  -0.056601  0  3.974092  0
C  C190  1  0.34967871  0.80436695  0.42982989  1  -0.010615  0  -0.080809  -0.056365  0  3.974078  0
C  C191  1  0.19562922  0.65032186  0.07017087  1  -0.010699  0  -0.080817  -0.056334  0  3.973996  0
C  C192  1  0.68251846  0.11179477  0.56062299  1  -0.017531  0  -0.107478  -0.201568  0  4.008164  0
C  C193  1  0.88820908  0.31748777  0.93937755  1  -0.017509  0  -0.107449  -0.201508  0  4.008196  0
C  C194  1  0.31748353  0.88820373  0.43938023  1  -0.017728  0  -0.107425  -0.20148  0  4.008038  0
C  C195  1  0.11179306  0.68251883  0.06062431  1  -0.017425  0  -0.107499  -0.201639  0  4.008108  0
C  C196  1  0.62495390  0.01662777  0.57578170  1  0.26563  0  0.094775  0.166494  0  4.058897  0
C  C197  1  0.98337738  0.37504800  0.92421982  1  0.265662  0  0.09479  0.166602  0  4.058991  0
C  C198  1  0.37504244  0.98336775  0.42421957  1  0.265376  0  0.094712  0.166543  0  4.058803  0
C  C199  1  0.01662395  0.62495754  0.07578275  1  0.265443  0  0.094852  0.166683  0  4.058869  0
C  C200  1  0.53238581  0.00483309  0.59701536  1  -0.031973  0  -0.096261  -0.174722  0  3.996046  0
C  C201  1  0.99517323  0.46761626  0.90298740  1  -0.03214  0  -0.096221  -0.174783  0  3.996147  0
C  C202  1  0.46761376  0.99516444  0.40298512  1  -0.032602  0  -0.096225  -0.174798  0  3.99596  0
C  C203  1  0.00482892  0.53239107  0.09701361  1  -0.032677  0  -0.096175  -0.174873  0  3.996056  0
C  C204  1  0.50208539  0.08966188  0.60697813  1  -0.017073  0  -0.084407  -0.077243  0  3.989817  0
C  C205  1  0.91034576  0.49791735  0.89302414  1  -0.017052  0  -0.084387  -0.077104  0  3.989573  0
C  C206  1  0.49791419  0.91033638  0.39302056  1  -0.01661  0  -0.084398  -0.077205  0  3.989734  0
C  C207  1  0.08965389  0.50208459  0.10697593  1  -0.016448  0  -0.084458  -0.077133  0  3.989731  0
C  C208  1  0.85136874  0.99923239  0.59095165  1  0.953006  0  0.192228  0.08976  0  3.825623  0
C  C209  1  0.00076755  0.14862661  0.90904380  1  0.952994  0  0.192182  0.089691  0  3.825649  0
C  C210  1  0.14863165  0.00076765  0.40904548  1  0.952977  0  0.192175  0.089736  0  3.825418  0
C  C211  1  0.99923053  0.85137618  0.09095712  1  0.95231  0  0.192214  0.089754  0  3.825446  0
C  C212  1  0.75683207  0.90065581  0.48957867  1  0.970684  0  0.194604  0.10127  0  3.792225  0
C  C213  1  0.09934372  0.24316303  0.01041986  1  0.971162  0  0.194626  0.101177  0  3.792146  0
C  C214  1  0.24316758  0.09934614  0.51042094  1  0.970845  0  0.194627  0.101298  0  3.79212  0
C  C215  1  0.90065511  0.75683712  0.98958084  1  0.970733  0  0.19454  0.101069  0  3.792189  0
N  N216  1  0.35206639  0.41983309  0.57384398  1  -0.797569  0  -0.244111  -0.213948  0  3.54991  0
N  N217  1  0.58016936  0.64793033  0.92615787  1  -0.797526  0  -0.244054  -0.213884  0  3.54965  0
N  N218  1  0.64793565  0.58016763  0.42615951  1  -0.797895  0  -0.244162  -0.213973  0  3.549898  0
N  N219  1  0.41982529  0.35206013  0.07384354  1  -0.798052  0  -0.243992  -0.213756  0  3.549367  0
N  N220  1  0.41143593  0.47256754  0.53552670  1  -0.697632  0  -0.208773  -0.159231  0  3.240973  0
N  N221  1  0.52743051  0.58856296  0.96447581  1  -0.697897  0  -0.208715  -0.15918  0  3.240955  0
N  N222  1  0.58856763  0.52742940  0.46447652  1  -0.697681  0  -0.208707  -0.159242  0  3.241168  0
N  N223  1  0.47256343  0.41143087  0.03552779  1  -0.697437  0  -0.208762  -0.159275  0  3.240727  0
N  N224  1  0.24125549  0.43413730  0.49454423  1  -0.882869  0  -0.130017  0.067472  0  3.794791  0
N  N225  1  0.56585889  0.75874299  0.00545721  1  -0.883183  0  -0.130071  0.067411  0  3.794916  0
N  N226  1  0.75874644  0.56585825  0.50545817  1  -0.883096  0  -0.13016  0.067273  0  3.795055  0
N  N227  1  0.43413904  0.24125170  0.99454556  1  -0.883007  0  -0.130031  0.067542  0  3.794886  0
N  N228  1  0.14641186  0.41763590  0.44965872  1  -0.760906  0  -0.16198  -0.066682  0  3.527159  0
N  N229  1  0.58236176  0.85358980  0.05034248  1  -0.761449  0  -0.161988  -0.066662  0  3.527181  0
N  N230  1  0.85359256  0.58236503  0.55034274  1  -0.761288  0  -0.161953  -0.066673  0  3.527243  0
N  N231  1  0.41763625  0.14641004  0.94965763  1  -0.761349  0  -0.161966  -0.06666  0  3.527238  0
N  N232  1  0.85941540  0.92801733  0.49346760  1  -0.752863  0  -0.223295  -0.151101  0  3.488075  0
N  N233  1  0.07197966  0.14058096  0.00652830  1  -0.753265  0  -0.223289  -0.151075  0  3.487932  0
N  N234  1  0.14058504  0.07198492  0.50653027  1  -0.75284  0  -0.223308  -0.151101  0  3.487938  0
N  N235  1  0.92801917  0.85942065  0.99346930  1  -0.752899  0  -0.223276  -0.150987  0  3.487649  0
N  N236  1  0.91867035  0.99029349  0.55677656  1  -0.763386  0  -0.223188  -0.15422  0  3.487201  0
N  N237  1  0.00970752  0.08132338  0.94321869  1  -0.76315  0  -0.22309  -0.154107  0  3.486874  0
N  N238  1  0.08133012  0.00971024  0.44322055  1  -0.763362  0  -0.22313  -0.15423  0  3.486981  0
N  N239  1  0.99028883  0.91867360  0.05677948  1  -0.762916  0  -0.223137  -0.154258  0  3.487031  0
N  N240  1  0.74909918  0.94458073  0.55019801  1  -0.86214  0  -0.115535  0.112459  0  3.758704  0
N  N241  1  0.05542010  0.25089895  0.94979937  1  -0.862109  0  -0.115437  0.112698  0  3.758553  0
N  N242  1  0.25090446  0.05542135  0.44980161  1  -0.862107  0  -0.11553  0.112513  0  3.75871  0
N  N243  1  0.94457553  0.74910139  0.05019958  1  -0.861905  0  -0.115456  0.112637  0  3.758565  0
N  N244  1  0.65493225  0.92949253  0.56873937  1  -0.783729  0  -0.161491  -0.09319  0  3.567086  0
N  N245  1  0.07050992  0.34506263  0.93125703  1  -0.783665  0  -0.16158  -0.093322  0  3.567546  0
N  N246  1  0.34506736  0.07050793  0.43125772  1  -0.78366  0  -0.161429  -0.093213  0  3.567237  0
N  N247  1  0.92948973  0.65493932  0.06874211  1  -0.783742  0  -0.161602  -0.093332  0  3.567343  0
O  O248  1  0.94657343  0.75841124  0.41726774  1  -1.176153  0  -0.343388  -0.572222  0  2.332703  0
O  O249  1  0.24159690  0.05343308  0.08273581  1  -1.175687  0  -0.343396  -0.572258  0  2.332803  0
O  O250  1  0.05342947  0.24159202  0.58273942  1  -1.175601  0  -0.343429  -0.572365  0  2.332736  0
O  O251  1  0.75840508  0.94656687  0.91726103  1  -1.175791  0  -0.343364  -0.572272  0  2.332869  0
O  O252  1  0.06932566  0.84932400  0.51647751  1  -1.184967  0  -0.332246  -0.557752  0  2.14496  0
O  O253  1  0.15067988  0.93069266  0.98352042  1  -1.184682  0  -0.332323  -0.557867  0  2.144722  0
O  O254  1  0.93069563  0.15068656  0.48351537  1  -1.184644  0  -0.332389  -0.557939  0  2.14468  0
O  O255  1  0.84931824  0.06931305  0.01647664  1  -1.184849  0  -0.332331  -0.557939  0  2.144947  0
O  O256  1  0.12016636  0.18746728  0.15416642  1  -1.155473  0  -0.337875  -0.541136  0  2.274441  0
O  O257  1  0.81252521  0.87982931  0.34583120  1  -1.154946  0  -0.337796  -0.541071  0  2.274236  0
O  O258  1  0.87982248  0.81251135  0.84583244  1  -1.154888  0  -0.337904  -0.541302  0  2.274053  0
O  O259  1  0.18747751  0.12016728  0.65416626  1  -1.154951  0  -0.337884  -0.541227  0  2.274263  0
O  O260  1  0.09657486  0.04962270  0.19945820  1  -1.187649  0  -0.325392  -0.56651  0  2.148682  0
O  O261  1  0.95038152  0.90343401  0.30054496  1  -1.187643  0  -0.325374  -0.566524  0  2.148589  0
O  O262  1  0.90343266  0.95037218  0.80054899  1  -1.187597  0  -0.325448  -0.566679  0  2.148305  0
O  O263  1  0.04961801  0.09656203  0.69945254  1  -1.187659  0  -0.325384  -0.566566  0  2.148608  0
O  O264  1  0.45172401  0.26749104  0.63299392  1  -1.161287  0  -0.337069  -0.57557  0  2.305224  0
O  O265  1  0.73251943  0.54828488  0.86700188  1  -1.161243  0  -0.337028  -0.575597  0  2.304822  0
O  O266  1  0.54827551  0.73250645  0.36699812  1  -1.161105  0  -0.33703  -0.575548  0  2.304824  0
O  O267  1  0.26747705  0.45171799  0.13299793  1  -1.161242  0  -0.337097  -0.575612  0  2.305028  0
O  O268  1  0.58841762  0.36735849  0.59750670  1  -1.188443  0  -0.316947  -0.543584  0  2.185897  0
O  O269  1  0.63265612  0.41159975  0.90249052  1  -1.188643  0  -0.316912  -0.543539  0  2.185887  0
O  O270  1  0.41158766  0.63264570  0.40249430  1  -1.18884  0  -0.317055  -0.543725  0  2.185975  0
O  O271  1  0.36734111  0.58840051  0.09751047  1  -1.18879  0  -0.316881  -0.543587  0  2.186138  0
O  O272  1  0.60691190  0.67112234  0.79100826  1  -1.168318  0  -0.312733  -0.533479  0  2.303463  0
O  O273  1  0.32886948  0.39308249  0.70898362  1  -1.167813  0  -0.312976  -0.533741  0  2.303259  0
O  O274  1  0.39308436  0.32887021  0.20898702  1  -1.168052  0  -0.312877  -0.533627  0  2.30323  0
O  O275  1  0.67112048  0.60691339  0.29101226  1  -1.168303  0  -0.312867  -0.533632  0  2.303332  0
O  O276  1  0.56352328  0.53855979  0.69880045  1  -1.201387  0  -0.326495  -0.573348  0  2.427785  0
O  O277  1  0.46144037  0.43648561  0.80119443  1  -1.20203  0  -0.326504  -0.573401  0  2.428015  0
O  O278  1  0.43648504  0.46143684  0.30120049  1  -1.201809  0  -0.326494  -0.573366  0  2.428074  0
O  O279  1  0.53855688  0.56351682  0.19880027  1  -1.201323  0  -0.326479  -0.573392  0  2.427923  0
