# generated using pymatgen
data_AlH6C24N3(OF)6
_symmetry_space_group_name_H-M   'P 1'
_cell_length_a   3.96569241
_cell_length_b   15.83055642
_cell_length_c   15.80477505
_cell_angle_alpha   60.16119660
_cell_angle_beta   85.32916295
_cell_angle_gamma   84.99521678
_symmetry_Int_Tables_number   1
_chemical_formula_structural   AlH6C24N3(OF)6
_chemical_formula_sum   'Al1 H6 C24 N3 O6 F6'
_cell_volume   856.55939003
_cell_formula_units_Z   1
loop_
 _symmetry_equiv_pos_site_id
 _symmetry_equiv_pos_as_xyz
  1  'x, y, z'
loop_
 _atom_site_type_symbol
 _atom_site_label
 _atom_site_symmetry_multiplicity
 _atom_site_fract_x
 _atom_site_fract_y
 _atom_site_fract_z
 _atom_site_occupancy
 _atom_site_pbe_bader_charge
 _atom_site_pbe_bader_spin_density
 _atom_site_pbe_cm5_charge
 _atom_site_pbe_ddec_charge
 _atom_site_pbe_ddec_spin_density
 _atom_site_pbe_ddec_sum_bond_order
 _atom_site_pbe_magmom
Al  Al0  1  0.99995520  0.49980920  0.50053864  1  2.504811  0  0.430364  1.594254  0  2.576277  0
H  H1  1  0.39651185  0.86464629  0.59075480  1  0.094521  0  0.117686  0.146308  0  0.991638  0
H  H2  1  0.39589868  0.59138830  0.86353991  1  0.1038  0  0.117755  0.146354  0  0.990875  0
H  H3  1  0.44144115  0.05016718  0.58984258  1  0.096544  0  0.117655  0.146282  0  0.991242  0
H  H4  1  0.49178293  0.04874019  0.86315670  1  0.175669  0  0.117463  0.145478  0  0.992383  0
H  H5  1  0.49149076  0.86264800  0.04984043  1  0.117016  0  0.118104  0.146806  0  0.990394  0
H  H6  1  0.43001922  0.59138822  0.04906572  1  0.104085  0  0.117648  0.146441  0  0.991991  0
C  C7  1  0.51895028  0.57303533  0.35096814  1  1.601929  0  0.284707  0.699209  0  4.051769  0
C  C8  1  0.45129333  0.57683389  0.57407154  1  1.631811  0  0.285884  0.700746  0  4.051506  0
C  C9  1  0.52347253  0.35024784  0.57637112  1  1.679558  0  0.285765  0.700141  0  4.052495  0
C  C10  1  0.43785449  0.93067853  0.78654158  1  1.125479  0  0.259308  0.38277  0  4.007906  0
C  C11  1  0.40087787  0.78785921  0.78707106  1  1.092484  0  0.258624  0.381912  0  4.007906  0
C  C12  1  0.43447496  0.78745494  0.93015568  1  1.091936  0  0.258811  0.380829  0  4.008403  0
C  C13  1  0.40748266  0.73338358  0.58149058  1  0.445107  0  0.111317  0.301677  0  4.057142  0
C  C14  1  0.39700881  0.78544497  0.63084520  1  0.049742  0  -0.094669  -0.251586  0  3.973003  0
C  C15  1  0.39411423  0.73405074  0.73312019  1  -0.027778  0  -0.001328  0.058026  0  3.998245  0
C  C16  1  0.39964529  0.63184226  0.78418053  1  0.08164  0  -0.095107  -0.251397  0  3.971635  0
C  C17  1  0.41608163  0.58303995  0.73148563  1  0.54231  0  0.111833  0.301108  0  4.053973  0
C  C18  1  0.42077508  0.63132733  0.62925993  1  0.074232  0  -0.017317  -0.250017  0  3.940977  0
C  C19  1  0.46331327  0.08844923  0.63015777  1  0.110075  0  -0.094816  -0.251427  0  3.970307  0
C  C20  1  0.49367798  0.18851423  0.58118421  1  0.499  0  0.111195  0.300673  0  4.057884  0
C  C21  1  0.51734743  0.24136490  0.62962564  1  0.141032  0  -0.017676  -0.249094  0  3.944582  0
C  C22  1  0.51477716  0.18775338  0.73166285  1  0.39906  0  0.110632  0.299963  0  4.058449  0
C  C23  1  0.48995494  0.08764609  0.78388380  1  -0.000545  0  -0.095044  -0.250053  0  3.974436  0
C  C24  1  0.46203151  0.03768109  0.73246696  1  -0.14066  0  -0.002078  0.055348  0  3.999591  0
C  C25  1  0.48896278  0.78350054  0.08827072  1  0.103578  0  -0.095332  -0.253026  0  3.969072  0
C  C26  1  0.51826939  0.73063344  0.18859211  1  0.387498  0  0.113774  0.305087  0  4.048843  0
C  C27  1  0.50928617  0.62867775  0.24226772  1  0.155008  0  -0.018532  -0.253417  0  3.934814  0
C  C28  1  0.47505139  0.58161493  0.18830977  1  0.380934  0  0.112215  0.303808  0  4.053456  0
C  C29  1  0.45110471  0.63115223  0.08791532  1  0.22271  0  -0.095289  -0.253547  0  3.973475  0
C  C30  1  0.45603477  0.73314736  0.03756956  1  -0.092586  0  9.2e-05  0.061003  0  3.995082  0
N  N31  1  0.41113031  0.88547464  0.73466661  1  -1.202432  0  -0.3061  -0.40293  0  3.20734  0
N  N32  1  0.40734876  0.73561133  0.88494474  1  -1.179306  0  -0.306447  -0.402875  0  3.207006  0
N  N33  1  0.45176140  0.88484400  0.88434180  1  -1.195544  0  -0.306391  -0.402995  0  3.204844  0
O  O34  1  0.27249838  0.39496909  0.59499973  1  -1.238819  0  -0.227844  -0.586367  0  2.360229  0
O  O35  1  0.29727118  0.51002938  0.39587274  1  -1.245853  0  -0.23005  -0.594494  0  2.381792  0
O  O36  1  0.22791857  0.59546309  0.51310596  1  -1.236167  0  -0.226985  -0.581139  0  2.346695  0
O  O37  1  0.77240943  0.38934222  0.51743188  1  -1.238354  0  -0.222521  -0.572718  0  2.340621  0
O  O38  1  0.70303817  0.51570658  0.59267179  1  -1.243842  0  -0.226337  -0.58606  0  2.370037  0
O  O39  1  0.74317108  0.59217970  0.39101543  1  -1.233489  0  -0.225139  -0.580911  0  2.358818  0
F  F40  1  0.42239026  0.48435258  0.78074701  1  -0.616988  0  -0.08931  -0.12139  0  1.316989  0
F  F41  1  0.41777480  0.78303492  0.48263064  1  -0.624381  0  -0.089956  -0.122778  0  1.31852  0
F  F42  1  0.49243944  0.23792846  0.48239184  1  -0.627469  0  -0.089643  -0.122338  0  1.314678  0
F  F43  1  0.54285484  0.23642705  0.78087002  1  -0.625255  0  -0.090111  -0.12282  0  1.313735  0
F  F44  1  0.54583613  0.77995453  0.23701267  1  -0.623159  0  -0.088499  -0.120678  0  1.323903  0
F  F45  1  0.47400840  0.48311254  0.23607959  1  -0.618943  0  -0.088314  -0.120169  0  1.326435  0
