# generated using pymatgen
data_CdH10C7N12
_symmetry_space_group_name_H-M   'P 1'
_cell_length_a   11.01551255
_cell_length_b   11.03694034
_cell_length_c   12.76478039
_cell_angle_alpha   105.35362173
_cell_angle_beta   90.00017494
_cell_angle_gamma   119.93577997
_symmetry_Int_Tables_number   1
_chemical_formula_structural   CdH10C7N12
_chemical_formula_sum   'Cd4 H40 C28 N48'
_cell_volume   1280.55033576
_cell_formula_units_Z   4
loop_
 _symmetry_equiv_pos_site_id
 _symmetry_equiv_pos_as_xyz
  1  'x, y, z'
loop_
 _atom_site_type_symbol
 _atom_site_label
 _atom_site_symmetry_multiplicity
 _atom_site_fract_x
 _atom_site_fract_y
 _atom_site_fract_z
 _atom_site_occupancy
 _atom_site_hle17_bader_spin_density
 _atom_site_hle17_ddec_charge
 _atom_site_hle17_ddec_spin_density
 _atom_site_hle17_ddec_sum_bond_order
 _atom_site_hle17_magmom
 _atom_site_hse06_10hf_bader_spin_density
 _atom_site_hse06_10hf_ddec_charge
 _atom_site_hse06_10hf_ddec_spin_density
 _atom_site_hse06_10hf_ddec_sum_bond_order
 _atom_site_hse06_10hf_magmom
 _atom_site_hse06_bader_spin_density
 _atom_site_hse06_ddec_charge
 _atom_site_hse06_ddec_spin_density
 _atom_site_hse06_ddec_sum_bond_order
 _atom_site_hse06_magmom
 _atom_site_pbe_bader_spin_density
 _atom_site_pbe_cm5_charge
 _atom_site_pbe_ddec_charge
 _atom_site_pbe_ddec_spin_density
 _atom_site_pbe_ddec_sum_bond_order
 _atom_site_pbe_magmom
Cd  Cd0  1  0.84400554  0.99999935  0.74999821  1  0  1.033347  0  1.904531  0  0  0.857496  0  2.369757  0  0  0.901412  0  2.333787  0  0  0.792708  0.826897  0  2.393946  0
Cd  Cd1  1  0.15599388  0.99999910  0.25000036  1  0  1.033353  0  1.904512  0  0  0.857527  0  2.36972  0  0  0.901443  0  2.333749  0  0  0.792708  0.826926  0  2.393911  0
Cd  Cd2  1  0.99999884  0.99999954  0.50000041  1  0  1.042276  0  1.932319  0  0  0.862868  0  2.404847  0  0  0.90718  0  2.367712  0  0  0.796142  0.831617  0  2.429189  0
Cd  Cd3  1  0.99999916  0.99999841  0.99999859  1  0  1.042306  0  1.932286  0  0  0.86291  0  2.404814  0  0  0.90722  0  2.36768  0  0  0.79615  0.831659  0  2.429151  0
H  H4  1  0.62828142  0.44963714  0.98682307  1  0  0.091576  0  0.948858  0  0  0.102791  0  1.019093  0  0  0.103521  0  1.018413  0  0  0.11197  0.102243  0  1.019527  0
H  H5  1  0.17864439  0.55036458  0.51317761  1  0  0.091571  0  0.94891  0  0  0.102796  0  1.019129  0  0  0.103523  0  1.018453  0  0  0.111971  0.102247  0  1.019564  0
H  H6  1  0.37171794  0.55036347  0.01317446  1  0  0.091556  0  0.948807  0  0  0.102775  0  1.019047  0  0  0.103503  0  1.018369  0  0  0.111972  0.102228  0  1.019481  0
H  H7  1  0.82135478  0.44963383  0.48682412  1  0  0.091539  0  0.948874  0  0  0.102764  0  1.019109  0  0  0.103492  0  1.018433  0  0  0.111955  0.102218  0  1.019543  0
H  H8  1  0.49655575  0.28633721  0.88780579  1  0  0.07851  0  0.94899  0  0  0.087166  0  1.02666  0  0  0.087747  0  1.026584  0  0  0.110475  0.086707  0  1.026779  0
H  H9  1  0.21022031  0.71366620  0.61219515  1  0  0.07848  0  0.948993  0  0  0.087129  0  1.026681  0  0  0.087712  0  1.026599  0  0  0.11046  0.08667  0  1.026799  0
H  H10  1  0.50344396  0.71366229  0.11219149  1  0  0.07851  0  0.948956  0  0  0.087158  0  1.026638  0  0  0.087738  0  1.026562  0  0  0.110484  0.0867  0  1.026758  0
H  H11  1  0.78977995  0.28633441  0.38780630  1  0  0.078473  0  0.948982  0  0  0.087132  0  1.026661  0  0  0.087714  0  1.026583  0  0  0.110464  0.086676  0  1.026782  0
H  H12  1  0.73135816  0.56446261  0.84083268  1  0  0.090698  0  0.929754  0  0  0.106964  0  0.991699  0  0  0.107714  0  0.992259  0  0  0.098083  0.106314  0  0.991521  0
H  H13  1  0.16689730  0.43553966  0.65916825  1  0  0.090676  0  0.929731  0  0  0.106962  0  0.991648  0  0  0.107711  0  0.992208  0  0  0.098067  0.106311  0  0.991471  0
H  H14  1  0.26864482  0.43553799  0.15916407  1  0  0.090709  0  0.929744  0  0  0.106962  0  0.991692  0  0  0.10772  0  0.992244  0  0  0.098075  0.106314  0  0.991514  0
H  H15  1  0.83310478  0.56446095  0.34083477  1  0  0.090689  0  0.929746  0  0  0.106973  0  0.991661  0  0  0.107723  0  0.992221  0  0  0.098084  0.106324  0  0.991486  0
H  H16  1  0.54944899  0.50688926  0.83628787  1  0  0.094673  0  0.936655  0  0  0.110572  0  0.998376  0  0  0.110978  0  0.999433  0  0  0.100802  0.110301  0  0.997682  0
H  H17  1  0.04256254  0.49311593  0.66371488  1  0  0.094658  0  0.936721  0  0  0.110574  0  0.998413  0  0  0.110983  0  0.999468  0  0  0.100818  0.110305  0  0.997716  0
H  H18  1  0.45055126  0.49311134  0.16370966  1  0  0.09465  0  0.936707  0  0  0.110532  0  0.998433  0  0  0.11095  0  0.999479  0  0  0.100792  0.110266  0  0.997736  0
H  H19  1  0.95743773  0.50688468  0.33628813  1  0  0.094659  0  0.936709  0  0  0.110569  0  0.998404  0  0  0.11098  0  0.999457  0  0  0.100812  0.110301  0  0.997709  0
H  H20  1  0.61899201  0.45367124  0.64932852  1  0  0.078713  0  0.933282  0  0  0.092327  0  1.001771  0  0  0.092486  0  1.002443  0  0  0.111724  0.092323  0  1.00095  0
H  H21  1  0.16532664  0.54633061  0.85067216  1  0  0.078766  0  0.93325  0  0  0.092372  0  1.001751  0  0  0.092537  0  1.002424  0  0  0.11177  0.092368  0  1.000932  0
H  H22  1  0.38100514  0.54632497  0.35066801  1  0  0.078746  0  0.933253  0  0  0.092326  0  1.001765  0  0  0.092481  0  1.002437  0  0  0.11173  0.092322  0  1.000944  0
H  H23  1  0.83467507  0.45367109  0.14933032  1  0  0.078727  0  0.933259  0  0  0.092335  0  1.001753  0  0  0.092496  0  1.002427  0  0  0.111759  0.09233  0  1.000932  0
H  H24  1  0.67055328  0.33898360  0.68274313  1  0  0.094764  0  0.95356  0  0  0.102501  0  1.028872  0  0  0.104126  0  1.027285  0  0  0.113333  0.101278  0  1.029952  0
H  H25  1  0.33157503  0.66101915  0.81725883  1  0  0.094796  0  0.953582  0  0  0.10249  0  1.028942  0  0  0.104116  0  1.027353  0  0  0.113325  0.101269  0  1.030021  0
H  H26  1  0.32944443  0.66101371  0.31725286  1  0  0.094824  0  0.953563  0  0  0.102552  0  1.028855  0  0  0.10418  0  1.027263  0  0  0.113363  0.101331  0  1.029933  0
H  H27  1  0.66842723  0.33898365  0.18274547  1  0  0.094786  0  0.953575  0  0  0.102495  0  1.028912  0  0  0.104122  0  1.027321  0  0  0.113326  0.101273  0  1.029991  0
H  H28  1  0.99963830  0.35315372  0.88641930  1  0  0.086481  0  0.958062  0  0  0.092691  0  1.027231  0  0  0.094677  0  1.024893  0  0  0.13143  0.091275  0  1.028894  0
H  H29  1  0.64648390  0.64684410  0.61358002  1  0  0.086477  0  0.958029  0  0  0.092682  0  1.027211  0  0  0.094669  0  1.02487  0  0  0.131434  0.091264  0  1.028871  0
H  H30  1  0.00036177  0.64684469  0.11358086  1  0  0.086491  0  0.958072  0  0  0.0927  0  1.027238  0  0  0.094686  0  1.024899  0  0  0.131444  0.091281  0  1.028898  0
H  H31  1  0.35351671  0.35315541  0.38642118  1  0  0.086481  0  0.958034  0  0  0.092689  0  1.027204  0  0  0.094677  0  1.024861  0  0  0.131438  0.091273  0  1.028867  0
H  H32  1  0.55519703  0.08585340  0.83703176  1  0  0.108651  0  0.949172  0  0  0.111054  0  1.027475  0  0  0.114449  0  1.022376  0  0  0.139952  0.108234  0  1.031495  0
H  H33  1  0.46934541  0.91414812  0.66296681  1  0  0.108664  0  0.949143  0  0  0.111062  0  1.02746  0  0  0.114457  0  1.022359  0  0  0.139948  0.108243  0  1.031479  0
H  H34  1  0.44480268  0.91414611  0.16296709  1  0  0.108679  0  0.949148  0  0  0.111078  0  1.027456  0  0  0.114473  0  1.022356  0  0  0.139954  0.108263  0  1.031472  0
H  H35  1  0.53065575  0.08585249  0.33703385  1  0  0.108673  0  0.949127  0  0  0.111074  0  1.027439  0  0  0.114469  0  1.022339  0  0  0.139949  0.108254  0  1.031458  0
H  H36  1  0.21447834  0.92927196  0.63160597  1  0  0.086756  0  0.950294  0  0  0.094182  0  1.016777  0  0  0.095482  0  1.015633  0  0  0.131604  0.093277  0  1.017579  0
H  H37  1  0.28520602  0.07072939  0.86839343  1  0  0.086745  0  0.950229  0  0  0.094167  0  1.01673  0  0  0.09547  0  1.015571  0  0  0.131603  0.09326  0  1.017534  0
H  H38  1  0.78551992  0.07072645  0.36839419  1  0  0.086726  0  0.950248  0  0  0.094154  0  1.016737  0  0  0.095449  0  1.0156  0  0  0.131577  0.093249  0  1.017539  0
H  H39  1  0.71479243  0.92927121  0.13160566  1  0  0.08674  0  0.950204  0  0  0.094163  0  1.016702  0  0  0.095461  0  1.01556  0  0  0.131592  0.093258  0  1.017505  0
H  H40  1  0.34524777  0.34547887  0.59974802  1  0  0.103564  0  0.960417  0  0  0.105127  0  1.040315  0  0  0.108893  0  1.035273  0  0  0.136059  0.102116  0  1.044227  0
H  H41  1  0.99977087  0.65452074  0.90025131  1  0  0.103552  0  0.960448  0  0  0.105122  0  1.04034  0  0  0.108891  0  1.035291  0  0  0.136054  0.10211  0  1.04425  0
H  H42  1  0.65475049  0.65451954  0.40025057  1  0  0.103535  0  0.960443  0  0  0.105105  0  1.040341  0  0  0.108873  0  1.035293  0  0  0.136038  0.102094  0  1.044252  0
H  H43  1  0.00022648  0.34547767  0.09974885  1  0  0.103569  0  0.960473  0  0  0.105132  0  1.040365  0  0  0.108899  0  1.035324  0  0  0.136065  0.102123  0  1.044274  0
C  C44  1  0.60510892  0.37973535  0.90143809  1  0  -0.016631  0  3.627143  0  0  -0.095433  0  3.889572  0  0  -0.091527  0  3.90063  0  0  -0.052343  -0.097745  0  3.881862  0
C  C45  1  0.22537650  0.62026842  0.59856309  1  0  -0.016571  0  3.62715  0  0  -0.095409  0  3.889603  0  0  -0.091501  0  3.900654  0  0  -0.052318  -0.097722  0  3.88189  0
C  C46  1  0.39489043  0.62026526  0.09856022  1  0  -0.016584  0  3.626978  0  0  -0.095369  0  3.889406  0  0  -0.09146  0  3.900463  0  0  -0.052339  -0.097683  0  3.881702  0
C  C47  1  0.77462466  0.37973218  0.40143914  1  0  -0.016511  0  3.627008  0  0  -0.095361  0  3.889453  0  0  -0.091454  0  3.900507  0  0  -0.052324  -0.097681  0  3.881757  0
C  C48  1  0.62367900  0.46728395  0.82186646  1  0  -0.147944  0  3.657871  0  0  -0.191807  0  3.923282  0  0  -0.193975  0  3.937013  0  0  -0.161558  -0.190308  0  3.913757  0
C  C49  1  0.15639803  0.53271902  0.67813525  1  0  -0.147928  0  3.657884  0  0  -0.191767  0  3.923246  0  0  -0.193935  0  3.936975  0  0  -0.161547  -0.190268  0  3.913719  0
C  C50  1  0.37632217  0.53271665  0.17813185  1  0  -0.147922  0  3.657957  0  0  -0.191752  0  3.92332  0  0  -0.193934  0  3.937046  0  0  -0.161525  -0.190259  0  3.913803  0
C  C51  1  0.84360314  0.46728159  0.32186698  1  0  -0.147967  0  3.657888  0  0  -0.191808  0  3.923259  0  0  -0.193978  0  3.936987  0  0  -0.16157  -0.190311  0  3.913741  0
C  C52  1  0.59940943  0.38201050  0.70044689  1  0  -0.015369  0  3.614266  0  0  -0.091442  0  3.875018  0  0  -0.087774  0  3.886011  0  0  -0.0506  -0.093275  0  3.866893  0
C  C53  1  0.21740331  0.61799116  0.79955457  1  0  -0.015454  0  3.614292  0  0  -0.091515  0  3.875114  0  0  -0.087846  0  3.886107  0  0  -0.050645  -0.093347  0  3.866989  0
C  C54  1  0.40058828  0.61798681  0.29955067  1  0  -0.015471  0  3.614458  0  0  -0.091501  0  3.875119  0  0  -0.087822  0  3.886101  0  0  -0.050627  -0.093333  0  3.866999  0
C  C55  1  0.78259896  0.38201165  0.20044895  1  0  -0.015328  0  3.614384  0  0  -0.091419  0  3.875129  0  0  -0.087746  0  3.886116  0  0  -0.050601  -0.093251  0  3.867008  0
C  C56  1  0.88807948  0.31758645  0.88090795  1  0  0.187516  0  3.759304  0  0  0.132914  0  4.057101  0  0  0.144225  0  4.071318  0  0  0.135541  0.125434  0  4.047588  0
C  C57  1  0.57049378  0.68241358  0.61909164  1  0  0.187569  0  3.759198  0  0  0.132969  0  4.056995  0  0  0.144279  0  4.071212  0  0  0.135572  0.125497  0  4.047478  0
C  C58  1  0.11192023  0.68241306  0.11909168  1  0  0.187563  0  3.759242  0  0  0.132965  0  4.057032  0  0  0.144277  0  4.071247  0  0  0.135577  0.12549  0  4.047513  0
C  C59  1  0.42950739  0.31758702  0.38090981  1  0  0.187601  0  3.759138  0  0  0.133007  0  4.056935  0  0  0.144316  0  4.071154  0  0  0.135593  0.125525  0  4.047427  0
C  C60  1  0.66342878  0.17851790  0.85482617  1  0  0.188012  0  3.614067  0  0  0.109861  0  3.879726  0  0  0.124864  0  3.889957  0  0  0.167532  0.100831  0  3.872063  0
C  C61  1  0.48491326  0.82148288  0.64517318  1  0  0.188079  0  3.614095  0  0  0.109918  0  3.879742  0  0  0.124922  0  3.889972  0  0  0.16755  0.100885  0  3.872079  0
C  C62  1  0.33657003  0.82148161  0.14517268  1  0  0.187957  0  3.614147  0  0  0.109824  0  3.879806  0  0  0.124831  0  3.890034  0  0  0.167511  0.100789  0  3.872142  0
C  C63  1  0.51508791  0.17851772  0.35482905  1  0  0.188005  0  3.614185  0  0  0.109836  0  3.879829  0  0  0.124835  0  3.890064  0  0  0.167512  0.100805  0  3.872165  0
C  C64  1  0.27932207  0.04319206  0.63429710  1  0  0.193531  0  3.749007  0  0  0.137951  0  4.044821  0  0  0.149505  0  4.059537  0  0  0.13631  0.130279  0  4.03477  0
C  C65  1  0.23613091  0.95680919  0.86570309  1  0  0.193585  0  3.748921  0  0  0.138013  0  4.044731  0  0  0.149576  0  4.059435  0  0  0.136329  0.13034  0  4.034679  0
C  C66  1  0.72067745  0.95680525  0.36570125  1  0  0.193563  0  3.74888  0  0  0.137974  0  4.044704  0  0  0.149532  0  4.059409  0  0  0.136341  0.130303  0  4.034653  0
C  C67  1  0.76387045  0.04319361  0.13429807  1  0  0.193498  0  3.748988  0  0  0.137918  0  4.044818  0  0  0.149475  0  4.059523  0  0  0.136306  0.130245  0  4.034768  0
C  C68  1  0.34158017  0.25209666  0.61639108  1  0  0.183523  0  3.634883  0  0  0.104329  0  3.905214  0  0  0.118795  0  3.915924  0  0  0.162086  0.095418  0  3.897605  0
C  C69  1  0.08948551  0.74790290  0.88360861  1  0  0.183608  0  3.634843  0  0  0.104429  0  3.90521  0  0  0.118901  0  3.915914  0  0  0.162168  0.095518  0  3.897599  0
C  C70  1  0.65841662  0.74790065  0.38360648  1  0  0.183627  0  3.634845  0  0  0.104401  0  3.90519  0  0  0.118874  0  3.915893  0  0  0.162176  0.095491  0  3.897581  0
C  C71  1  0.91051294  0.25209771  0.11639205  1  0  0.183611  0  3.634883  0  0  0.104395  0  3.905212  0  0  0.118865  0  3.915917  0  0  0.162152  0.095485  0  3.897603  0
N  N72  1  0.69802507  0.31965137  0.88948035  1  0  0.048629  0  3.53814  0  0  0.173732  0  3.717401  0  0  0.16308  0  3.741777  0  0  -0.129375  0.179643  0  3.702478  0
N  N73  1  0.37837445  0.68034875  0.61051875  1  0  0.048513  0  3.538145  0  0  0.173655  0  3.717377  0  0  0.162997  0  3.741762  0  0  -0.129404  0.179566  0  3.702454  0
N  N74  1  0.30197464  0.68034814  0.11051850  1  0  0.04863  0  3.538035  0  0  0.173686  0  3.717355  0  0  0.163023  0  3.741746  0  0  -0.129393  0.179598  0  3.702434  0
N  N75  1  0.62162617  0.31965076  0.38948166  1  0  0.048531  0  3.538244  0  0  0.173694  0  3.717466  0  0  0.163049  0  3.741827  0  0  -0.129376  0.179608  0  3.702543  0
N  N76  1  0.84183834  0.41048187  0.90677312  1  0  -0.283972  0  2.865061  0  0  -0.277642  0  3.131947  0  0  -0.28731  0  3.146842  0  0  -0.223007  -0.270874  0  3.12224  0
N  N77  1  0.43135671  0.58951707  0.59322519  1  0  -0.283947  0  2.86493  0  0  -0.277631  0  3.131803  0  0  -0.287297  0  3.146697  0  0  -0.223008  -0.270864  0  3.122098  0
N  N78  1  0.15816082  0.58951654  0.09322626  1  0  -0.283992  0  2.865006  0  0  -0.277644  0  3.131893  0  0  -0.287311  0  3.146788  0  0  -0.223019  -0.270877  0  3.122185  0
N  N79  1  0.56864482  0.41048243  0.40677444  1  0  -0.283968  0  2.86504  0  0  -0.277663  0  3.131912  0  0  -0.287334  0  3.146809  0  0  -0.223029  -0.270897  0  3.122208  0
N  N80  1  0.78226056  0.17339665  0.84833579  1  0  -0.418984  0  3.179065  0  0  -0.34997  0  3.468636  0  0  -0.371426  0  3.483756  0  0  -0.351425  -0.33539  0  3.45759  0
N  N81  1  0.60886564  0.82660269  0.65166432  1  0  -0.419031  0  3.179136  0  0  -0.350017  0  3.46872  0  0  -0.371473  0  3.483842  0  0  -0.351448  -0.33544  0  3.457675  0
N  N82  1  0.21773860  0.82660176  0.15166437  1  0  -0.419001  0  3.179104  0  0  -0.349993  0  3.468686  0  0  -0.371448  0  3.4838  0  0  -0.351437  -0.335415  0  3.45764  0
N  N83  1  0.39113643  0.17339792  0.34833712  1  0  -0.419022  0  3.179071  0  0  -0.350013  0  3.468662  0  0  -0.371471  0  3.483786  0  0  -0.351444  -0.335434  0  3.457617  0
N  N84  1  0.45484493  0.25696585  0.66149614  1  0  0.050824  0  3.53964  0  0  0.173633  0  3.721535  0  0  0.163096  0  3.745962  0  0  -0.130851  0.179293  0  3.706843  0
N  N85  1  0.19788333  0.74303679  0.83850689  1  0  0.050849  0  3.539435  0  0  0.173599  0  3.721394  0  0  0.163027  0  3.745884  0  0  -0.130927  0.179262  0  3.706703  0
N  N86  1  0.54515332  0.74303256  0.33850167  1  0  0.050694  0  3.539729  0  0  0.173566  0  3.721516  0  0  0.162995  0  3.746004  0  0  -0.130944  0.179228  0  3.706825  0
N  N87  1  0.80211803  0.25696601  0.16149584  1  0  0.050646  0  3.539703  0  0  0.173551  0  3.721481  0  0  0.162978  0  3.745973  0  0  -0.130943  0.179213  0  3.706789  0
N  N88  1  0.41679623  0.12420579  0.67432840  1  0  -0.293013  0  2.871737  0  0  -0.289933  0  3.145368  0  0  -0.299798  0  3.159911  0  0  -0.227311  -0.282996  0  3.135666  0
N  N89  1  0.29259341  0.87579760  0.82567410  1  0  -0.293013  0  2.871565  0  0  -0.289909  0  3.145209  0  0  -0.299766  0  3.159747  0  0  -0.227287  -0.282973  0  3.135509  0
N  N90  1  0.58320257  0.87579371  0.32566888  1  0  -0.292959  0  2.871589  0  0  -0.289891  0  3.145206  0  0  -0.299747  0  3.159744  0  0  -0.227281  -0.282953  0  3.135506  0
N  N91  1  0.70740740  0.12420410  0.17432760  1  0  -0.292925  0  2.871675  0  0  -0.28987  0  3.145292  0  0  -0.299723  0  3.159828  0  0  -0.22728  -0.282933  0  3.135593  0
N  N92  1  0.22840143  0.11706794  0.59747551  1  0  -0.411375  0  3.213779  0  0  -0.339087  0  3.506061  0  0  -0.361281  0  3.521695  0  0  -0.350932  -0.323725  0  3.494344  0
N  N93  1  0.11133423  0.88293216  0.90252419  1  0  -0.411498  0  3.213874  0  0  -0.339217  0  3.506147  0  0  -0.36141  0  3.521775  0  0  -0.350976  -0.323853  0  3.49443  0
N  N94  1  0.77159628  0.88292937  0.40252362  1  0  -0.411376  0  3.213722  0  0  -0.339111  0  3.506052  0  0  -0.361303  0  3.521681  0  0  -0.350955  -0.323749  0  3.494336  0
N  N95  1  0.88866476  0.11706954  0.09747516  1  0  -0.411381  0  3.213783  0  0  -0.339121  0  3.506108  0  0  -0.361315  0  3.521743  0  0  -0.350952  -0.323759  0  3.494392  0
N  N96  1  0.91891753  0.85991742  0.62351882  1  0  -0.623428  0  2.76526  0  0  -0.578006  0  3.07485  0  0  -0.603642  0  3.081616  0  0  -0.33451  -0.560119  0  3.069667  0
N  N97  1  0.05900117  0.14008327  0.87648185  1  0  -0.62334  0  2.765244  0  0  -0.577931  0  3.074829  0  0  -0.603566  0  3.081593  0  0  -0.334479  -0.560046  0  3.069643  0
N  N98  1  0.08108163  0.14008098  0.37647977  1  0  -0.623413  0  2.765335  0  0  -0.578003  0  3.074944  0  0  -0.603639  0  3.081709  0  0  -0.334511  -0.560116  0  3.069757  0
N  N99  1  0.94100000  0.85991733  0.12351882  1  0  -0.623435  0  2.765286  0  0  -0.578023  0  3.074881  0  0  -0.603658  0  3.081644  0  0  -0.334511  -0.560135  0  3.069694  0
N  N100  1  0.92598973  0.75773942  0.63279341  1  0  0.407238  0  4.237986  0  0  0.443612  0  4.514756  0  0  0.459729  0  4.543372  0  0  0.081577  0.43276  0  4.494946  0
N  N101  1  0.16825150  0.24226169  0.86720751  1  0  0.407146  0  4.238065  0  0  0.443528  0  4.514831  0  0  0.459643  0  4.543447  0  0  0.081523  0.432677  0  4.495021  0
N  N102  1  0.07400853  0.24225899  0.36720675  1  0  0.407189  0  4.238089  0  0  0.443568  0  4.514855  0  0  0.459684  0  4.543469  0  0  0.08155  0.432716  0  4.495044  0
N  N103  1  0.83174841  0.75774001  0.13279341  1  0  0.407216  0  4.237955  0  0  0.443593  0  4.51472  0  0  0.45971  0  4.543334  0  0  0.081558  0.432741  0  4.494911  0
N  N104  1  0.93144221  0.65785052  0.64188643  1  0  -0.391911  0  2.391984  0  0  -0.391175  0  2.613307  0  0  -0.397522  0  2.623012  0  0  -0.195833  -0.386591  0  2.606453  0
N  N105  1  0.27359335  0.34214992  0.85811291  1  0  -0.391939  0  2.392023  0  0  -0.391198  0  2.613337  0  0  -0.397546  0  2.623043  0  0  -0.195842  -0.386612  0  2.606485  0
N  N106  1  0.06855605  0.34214789  0.35811294  1  0  -0.3919  0  2.391963  0  0  -0.391175  0  2.613293  0  0  -0.397519  0  2.622997  0  0  -0.195827  -0.386588  0  2.606441  0
N  N107  1  0.72640691  0.65785068  0.14188697  1  0  -0.391903  0  2.391903  0  0  -0.391173  0  2.613235  0  0  -0.397521  0  2.622941  0  0  -0.195824  -0.386589  0  2.606385  0
N  N108  1  0.93486822  0.14812446  0.63264911  1  0  -0.617963  0  2.714912  0  0  -0.575172  0  3.017781  0  0  -0.600816  0  3.026071  0  0  -0.335269  -0.557873  0  3.012088  0
N  N109  1  0.78674531  0.85187621  0.86735096  1  0  -0.617982  0  2.714834  0  0  -0.575189  0  3.017689  0  0  -0.600836  0  3.025981  0  0  -0.335281  -0.557888  0  3.011992  0
N  N110  1  0.06513004  0.85187395  0.36734949  1  0  -0.617936  0  2.714833  0  0  -0.575149  0  3.017703  0  0  -0.600794  0  3.025995  0  0  -0.335236  -0.55785  0  3.012012  0
N  N111  1  0.21325585  0.14812440  0.13264970  1  0  -0.61792  0  2.714812  0  0  -0.575145  0  3.017696  0  0  -0.600792  0  3.025989  0  0  -0.335253  -0.557846  0  3.012003  0
N  N112  1  0.85919616  0.18949195  0.60771020  1  0  0.393601  0  4.246823  0  0  0.427123  0  4.530101  0  0  0.442497  0  4.560416  0  0  0.07449  0.4168  0  4.509921  0
N  N113  1  0.66970297  0.81050547  0.89228966  1  0  0.393537  0  4.246696  0  0  0.427065  0  4.529964  0  0  0.442438  0  4.56028  0  0  0.074504  0.416741  0  4.509784  0
N  N114  1  0.14080300  0.81050646  0.39228917  1  0  0.393554  0  4.246705  0  0  0.427077  0  4.529996  0  0  0.44245  0  4.560314  0  0  0.074439  0.416755  0  4.509816  0
N  N115  1  0.33029710  0.18949294  0.10770972  1  0  0.393587  0  4.246823  0  0  0.427109  0  4.530111  0  0  0.442482  0  4.560431  0  0  0.074491  0.416786  0  4.509931  0
N  N116  1  0.78771482  0.23190030  0.58517076  1  0  -0.38448  0  2.404811  0  0  -0.389044  0  2.636185  0  0  -0.395084  0  2.645803  0  0  -0.194379  -0.384889  0  2.629822  0
N  N117  1  0.55581482  0.76809712  0.91482886  1  0  -0.384411  0  2.404782  0  0  -0.388956  0  2.636132  0  0  -0.394991  0  2.645747  0  0  -0.194363  -0.384804  0  2.629772  0
N  N118  1  0.21228580  0.76809920  0.41482887  1  0  -0.384447  0  2.404716  0  0  -0.389013  0  2.636098  0  0  -0.395053  0  2.645718  0  0  -0.194351  -0.384861  0  2.629734  0
N  N119  1  0.44418580  0.23190239  0.08517155  1  0  -0.384497  0  2.404896  0  0  -0.389046  0  2.636258  0  0  -0.395085  0  2.645879  0  0  -0.194381  -0.384893  0  2.629896  0
