# generated using pymatgen
data_Zn6H31C40S3ClO33
_symmetry_space_group_name_H-M   'P 1'
_cell_length_a   18.67236489
_cell_length_b   18.76243103
_cell_length_c   18.81675779
_cell_angle_alpha   110.01792014
_cell_angle_beta   108.80271335
_cell_angle_gamma   109.00743338
_symmetry_Int_Tables_number   1
_chemical_formula_structural   Zn6H31C40S3ClO33
_chemical_formula_sum   'Zn6 H31 C40 S3 Cl1 O33'
_cell_volume   5110.56052979
_cell_formula_units_Z   1
loop_
 _symmetry_equiv_pos_site_id
 _symmetry_equiv_pos_as_xyz
  1  'x, y, z'
loop_
 _atom_site_type_symbol
 _atom_site_label
 _atom_site_symmetry_multiplicity
 _atom_site_fract_x
 _atom_site_fract_y
 _atom_site_fract_z
 _atom_site_occupancy
 _atom_site_pbe_bader_charge
 _atom_site_pbe_bader_spin_density
 _atom_site_pbe_cm5_charge
 _atom_site_pbe_ddec_charge
 _atom_site_pbe_ddec_spin_density
 _atom_site_pbe_ddec_sum_bond_order
 _atom_site_pbe_magmom
Zn  Zn0  1  0.07979176  0.50666843  0.08902394  1  1.32542  0  0.741625  0.978894  0  2.126487  0
Zn  Zn1  1  0.95587774  0.49741260  0.95553384  1  1.308864  0  0.719949  0.947636  0  2.134068  0
Zn  Zn2  1  0.93042981  0.93875420  0.48417741  1  1.314033  0  0.717989  0.947651  0  2.169406  0
Zn  Zn3  1  0.05747274  0.06190115  0.48508658  1  1.30631  0  0.726206  0.958239  0  2.118755  0
Zn  Zn4  1  0.48291557  0.05310405  0.05033729  1  1.31079  0  0.722465  0.95786  0  2.161707  0
Zn  Zn5  1  0.47605122  0.92907505  0.91727465  1  1.306974  0  0.716828  0.948535  0  2.141498  0
H  H6  1  0.02431148  0.64904648  0.25308564  1  0.052939  0  0.09144  0.095852  0  0.993304  0
H  H7  1  0.92547172  0.84733781  0.19702780  1  0.017502  0  0.094339  0.093457  0  0.97556  0
H  H8  1  0.10859066  0.79838520  0.17205978  1  0.022831  0  0.09198  0.089012  0  0.976885  0
H  H9  1  0.08947157  0.90926363  0.25546296  1  0.009539  0  0.09377  0.093791  0  0.97503  0
H  H10  1  0.71091819  0.12608179  0.94646380  1  0.11446  0  0.121485  0.159326  0  0.960459  0
H  H11  1  0.76100584  0.32128232  0.95984357  1  0.144454  0  0.125294  0.146587  0  0.958815  0
H  H12  1  0.89200182  0.13613415  0.62851816  1  0.120983  0  0.122162  0.12878  0  0.954164  0
H  H13  1  0.08314629  0.27531594  0.71260754  1  0.110716  0  0.118421  0.140915  0  0.965576  0
H  H14  1  0.90379852  0.28867176  0.71998164  1  0.138375  0  0.126307  0.133063  0  0.951689  0
H  H15  1  0.91629072  0.62937807  0.20411178  1  0.007901  0  0.08864  0.084055  0  0.978822  0
H  H16  1  0.26573488  0.67410539  0.85907200  1  0.100283  0  0.116227  0.115852  0  0.966957  0
H  H17  1  0.31949199  0.81101888  0.04214840  1  0.07233  0  0.111474  0.129392  0  0.983546  0
H  H18  1  0.14079317  0.59630435  0.88149323  1  0.116625  0  0.114254  0.114495  0  0.97028  0
H  H19  1  0.29024924  0.68364972  0.06733092  1  0.083038  0  0.11468  0.134777  0  0.979211  0
H  H20  1  0.21876191  0.87052818  0.75508471  1  0.085571  0  0.112319  0.111162  0  0.972424  0
H  H21  1  0.26580884  0.06060690  0.86517313  1  0.109693  0  0.116654  0.13907  0  0.975192  0
H  H22  1  0.07563910  0.86002691  0.66516226  1  0.131609  0  0.113835  0.112328  0  0.971217  0
H  H23  1  0.20950248  0.03832463  0.70801948  1  0.111803  0  0.112861  0.131767  0  0.979393  0
H  H24  1  0.70908432  0.12772277  0.29191872  1  0.152564  0  0.118411  0.130522  0  0.977474  0
H  H25  1  0.96028965  0.74577776  0.33802208  1  0.057827  0  0.092434  0.096348  0  0.995242  0
H  H26  1  0.69591375  0.96997276  0.15184640  1  0.102995  0  0.115662  0.136886  0  0.973704  0
H  H27  1  0.72142726  0.94311989  0.28684822  1  0.102072  0  0.121668  0.144806  0  0.9653  0
H  H28  1  0.07169831  0.78366208  0.37034925  1  0.041106  0  0.091243  0.088366  0  0.97246  0
H  H29  1  0.13903045  0.77114060  0.25395384  1  0.03881  0  0.093173  0.095522  0  0.978254  0
H  H30  1  0.15189699  0.90339474  0.34391280  1  0.054733  0  0.093736  0.093566  0  0.979633  0
H  H31  1  0.94827187  0.75808648  0.09401820  1  0.026901  0  0.092914  0.092004  0  0.974831  0
H  H32  1  0.86779964  0.67092914  0.08794123  1  0.036618  0  0.09235  0.092391  0  0.982884  0
H  H33  1  0.87269124  0.76262156  0.21396154  1  0.05033  0  0.09281  0.093738  0  0.978396  0
H  H34  1  0.91720610  0.42791394  0.26067635  1  0.621864  0  0.355128  0.401535  0  0.835886  0
H  H35  1  0.98954724  0.18715195  0.92944111  1  0.64478  0  0.354483  0.402851  0  0.838166  0
H  H36  1  0.86928403  0.24541373  0.32877656  1  0.639619  0  0.349954  0.40462  0  0.841337  0
C  C37  1  0.92448134  0.40161489  0.06104949  1  1.608491  0  0.221444  0.629894  0  4.151092  0
C  C38  1  0.01274357  0.83356856  0.29469823  1  0.057577  0  -0.014563  0.023906  0  3.800262  0
C  C39  1  0.09174937  0.86518760  0.28133300  1  -0.013333  0  -0.160755  -0.178152  0  3.884605  0
C  C40  1  0.92967496  0.79465003  0.20815351  1  -0.030833  0  -0.155535  -0.175134  0  3.851707  0
C  C41  1  0.69436316  0.23378844  0.99715008  1  0.062978  0  0.029195  0.190773  0  4.044694  0
C  C42  1  0.66947207  0.14859924  0.96524087  1  0.056583  0  -0.095145  -0.29655  0  3.841989  0
C  C43  1  0.77235697  0.29842914  0.00666224  1  0.055651  0  -0.050547  -0.066658  0  3.929542  0
C  C44  1  0.85614086  0.33719137  0.06703268  1  -0.191628  0  -0.018223  -0.229128  0  3.849541  0
C  C45  1  0.95122313  0.19839374  0.67716938  1  0.012479  0  -0.062196  -0.012443  0  3.954909  0
C  C46  1  0.02324650  0.21305276  0.67018511  1  -0.014796  0  -0.079514  -0.204441  0  3.852304  0
C  C47  1  0.94504356  0.26204214  0.74219490  1  -0.007735  0  -0.036872  0.00896  0  3.911919  0
C  C48  1  0.99766473  0.62935847  0.10190096  1  1.513369  0  0.22915  0.605637  0  4.06023  0
C  C49  1  0.98502779  0.29301456  0.82838613  1  -0.166942  0  -0.022955  -0.252653  0  3.873284  0
C  C50  1  0.26800604  0.69908267  0.92194744  1  -0.023181  0  -0.063569  -0.02316  0  3.968728  0
C  C51  1  0.32190160  0.78385333  0.98215078  1  -0.016914  0  -0.087099  -0.220804  0  3.890197  0
C  C52  1  0.20654202  0.64251228  0.93601520  1  -0.085622  0  -0.063549  -0.015114  0  3.971643  0
C  C53  1  0.22448977  0.64491860  0.01247643  1  0.020585  0  -0.088248  -0.23217  0  3.881719  0
C  C54  1  0.07816984  0.97370257  0.60337698  1  1.539942  0  0.211322  0.643076  0  4.149992  0
C  C55  1  0.01445196  0.90523793  0.36582633  1  1.508952  0  0.230299  0.603471  0  4.061658  0
C  C56  1  0.85446786  0.98795496  0.38003542  1  1.582181  0  0.214155  0.640784  0  4.162021  0
C  C57  1  0.02217475  0.14356130  0.60142400  1  1.537787  0  0.218878  0.653244  0  4.128419  0
C  C58  1  0.35003849  0.00669965  0.90386565  1  1.521399  0  0.214493  0.64834  0  4.142916  0
C  C59  1  0.15601468  0.59342932  0.02513446  1  1.520054  0  0.215155  0.647815  0  4.142408  0
C  C60  1  0.59164251  0.08189338  0.95509124  1  1.564926  0  0.213879  0.665858  0  4.135701  0
C  C61  1  0.60699611  0.01947615  0.11825599  1  1.541669  0  0.212315  0.642493  0  4.149399  0
C  C62  1  0.37969344  0.84914257  0.97101076  1  1.507993  0  0.209357  0.638671  0  4.161708  0
C  C63  1  0.21156153  0.92860372  0.76814635  1  -0.021607  0  -0.066352  -0.01974  0  3.982197  0
C  C64  1  0.27241038  0.00234376  0.84391795  1  -0.06221  0  -0.088587  -0.233246  0  3.881759  0
C  C65  1  0.13773244  0.92029064  0.70127877  1  0.007263  0  -0.064927  -0.025218  0  3.975226  0
C  C66  1  0.14625991  0.98108978  0.67717134  1  -0.119647  0  -0.08452  -0.216191  0  3.880227  0
C  C67  1  0.72398080  0.07619059  0.26588239  1  -0.023938  0  -0.071121  -0.05863  0  3.999825  0
C  C68  1  0.67893169  0.01874411  0.18043867  1  -0.055298  0  -0.082335  -0.208098  0  3.881933  0
C  C69  1  0.79553339  0.07344037  0.32438223  1  -0.191052  0  0.003431  -0.033616  0  3.923316  0
C  C70  1  0.98322516  0.36742269  0.88933907  1  1.584884  0  0.216451  0.627623  0  4.169  0
C  C71  1  0.78632948  0.99985563  0.32631830  1  0.052799  0  -0.069577  -0.207843  0  3.829065  0
C  C72  1  0.98487710  0.67890302  0.23553639  1  -0.023507  0  -0.160732  -0.17695  0  3.871793  0
C  C73  1  0.00825660  0.76024058  0.31609886  1  -0.059793  0  -0.160793  -0.17604  0  3.874663  0
C  C74  1  0.09125378  0.78555980  0.21871485  1  -0.031412  0  -0.156224  -0.174393  0  3.854628  0
C  C75  1  0.93185888  0.72941016  0.13247013  1  -0.022278  0  -0.161759  -0.179387  0  3.885903  0
C  C76  1  0.99989650  0.70445577  0.16942338  1  0.04568  0  -0.01457  0.023906  0  3.802516  0
S  S77  1  0.89059022  0.31546497  0.15386678  1  3.066687  0  0.537238  1.171465  0  6.000822  0
S  S78  1  0.05017646  0.25235661  0.87596141  1  3.074096  0  0.537196  1.176509  0  5.9864  0
S  S79  1  0.89693533  0.17548872  0.39332693  1  3.039136  0  0.541733  1.151895  0  5.950155  0
Cl  Cl80  1  0.63406310  0.28085776  0.02264141  1  -0.156221  0  0.016569  -0.03607  0  1.445751  0
O  O81  1  0.00406020  0.42984677  0.11314644  1  -1.115392  0  -0.300585  -0.500962  0  2.265944  0
O  O82  1  0.10548888  0.02261352  0.57431562  1  -1.164876  0  -0.316523  -0.577771  0  2.277891  0
O  O83  1  0.96015359  0.88159787  0.39110729  1  -1.186639  0  -0.314724  -0.577468  0  2.357066  0
O  O84  1  0.06924016  0.98504030  0.39549208  1  -1.130641  0  -0.312992  -0.522768  0  2.253424  0
O  O85  1  0.82737735  0.93060180  0.40191307  1  -1.121521  0  -0.321449  -0.528494  0  2.191546  0
O  O86  1  0.93207178  0.03292102  0.39932824  1  -1.159425  0  -0.298266  -0.55697  0  2.338166  0
O  O87  1  0.96568348  0.06548054  0.57086399  1  -1.177356  0  -0.311292  -0.577267  0  2.316692  0
O  O88  1  0.07924272  0.16684591  0.57757677  1  -1.11204  0  -0.316435  -0.523495  0  2.201416  0
O  O89  1  0.38673009  0.06361057  0.98498022  1  -1.129149  0  -0.323239  -0.534136  0  2.206549  0
O  O90  1  0.37601632  0.95519145  0.87220832  1  -1.172889  0  -0.317268  -0.580837  0  2.304739  0
O  O91  1  0.55992042  0.10613116  0.00286271  1  -1.163314  0  -0.310245  -0.575533  0  2.35826  0
O  O92  1  0.89714232  0.42204785  0.00438324  1  -1.168389  0  -0.307282  -0.561916  0  2.307195  0
O  O93  1  0.56279267  0.00191929  0.89941594  1  -1.125871  0  -0.323183  -0.534753  0  2.177732  0
O  O94  1  0.58057956  0.07269197  0.14790830  1  -1.129356  0  -0.32104  -0.533709  0  2.220252  0
O  O95  1  0.57652202  0.96658750  0.03873596  1  -1.163894  0  -0.312674  -0.566941  0  2.270383  0
O  O96  1  0.40637220  0.92798755  0.02425402  1  -1.16134  0  -0.317891  -0.576678  0  2.290506  0
O  O97  1  0.39877795  0.82423649  0.91004457  1  -1.129986  0  -0.322228  -0.535487  0  2.211098  0
O  O98  1  0.04934651  0.60321715  0.13057187  1  -1.18854  0  -0.316171  -0.587546  0  2.376262  0
O  O99  1  0.94487303  0.59553062  0.02078868  1  -1.127297  0  -0.314282  -0.52524  0  2.236  0
O  O100  1  0.18109223  0.57974927  0.08934199  1  -1.117669  0  -0.319165  -0.528661  0  2.199116  0
O  O101  1  0.07744482  0.56706392  0.97316434  1  -1.178939  0  -0.319534  -0.584228  0  2.317272  0
O  O102  1  0.03633019  0.40292187  0.96880091  1  -1.168716  0  -0.299757  -0.549371  0  2.384814  0
O  O103  1  0.92989696  0.39185191  0.85731998  1  -1.126578  0  -0.319901  -0.533627  0  2.217853  0
O  O104  1  0.99746155  0.91980008  0.57243252  1  -1.138437  0  -0.323999  -0.539228  0  2.200927  0
O  O105  1  0.81768524  0.27531976  0.16486779  1  -1.300093  0  -0.321333  -0.555573  0  2.135325  0
O  O106  1  0.94494381  0.27799359  0.14519401  1  -1.260911  0  -0.296874  -0.487082  0  2.089028  0
O  O107  1  0.95280202  0.41326527  0.23618711  1  -1.161244  0  -0.356126  -0.520344  0  2.12981  0
O  O108  1  0.01876795  0.16338662  0.81398896  1  -1.298886  0  -0.31944  -0.549874  0  2.121673  0
O  O109  1  0.13965939  0.31704437  0.91952007  1  -1.279766  0  -0.307196  -0.504256  0  2.08671  0
O  O110  1  0.02414084  0.24890569  0.94942753  1  -1.182007  0  -0.358629  -0.522112  0  2.142373  0
O  O111  1  0.92210107  0.20026060  0.48221343  1  -1.270981  0  -0.296387  -0.500849  0  2.149607  0
O  O112  1  0.95460182  0.17433148  0.35809053  1  -1.264321  0  -0.307522  -0.514958  0  2.09784  0
O  O113  1  0.86414758  0.24178238  0.37784979  1  -1.182012  0  -0.363525  -0.54001  0  2.134426  0
