# generated using pymatgen
data_CdH12C6(NCl)3
_symmetry_space_group_name_H-M   'P 1'
_cell_length_a   7.77244330
_cell_length_b   8.60484655
_cell_length_c   16.65192206
_cell_angle_alpha   90.00018277
_cell_angle_beta   97.86433493
_cell_angle_gamma   90.00005476
_symmetry_Int_Tables_number   1
_chemical_formula_structural   CdH12C6(NCl)3
_chemical_formula_sum   'Cd4 H48 C24 N12 Cl12'
_cell_volume   1103.21743719
_cell_formula_units_Z   4
loop_
 _symmetry_equiv_pos_site_id
 _symmetry_equiv_pos_as_xyz
  1  'x, y, z'
loop_
 _atom_site_type_symbol
 _atom_site_label
 _atom_site_symmetry_multiplicity
 _atom_site_fract_x
 _atom_site_fract_y
 _atom_site_fract_z
 _atom_site_occupancy
 _atom_site_hle17_bader_spin_density
 _atom_site_hle17_ddec_charge
 _atom_site_hle17_ddec_spin_density
 _atom_site_hle17_ddec_sum_bond_order
 _atom_site_hle17_magmom
 _atom_site_hse06_10hf_bader_spin_density
 _atom_site_hse06_10hf_ddec_charge
 _atom_site_hse06_10hf_ddec_spin_density
 _atom_site_hse06_10hf_ddec_sum_bond_order
 _atom_site_hse06_10hf_magmom
 _atom_site_hse06_bader_spin_density
 _atom_site_hse06_ddec_charge
 _atom_site_hse06_ddec_spin_density
 _atom_site_hse06_ddec_sum_bond_order
 _atom_site_hse06_magmom
 _atom_site_pbe_bader_spin_density
 _atom_site_pbe_cm5_charge
 _atom_site_pbe_ddec_charge
 _atom_site_pbe_ddec_spin_density
 _atom_site_pbe_ddec_sum_bond_order
 _atom_site_pbe_magmom
Cd  Cd0  1  0.21202019  0.50636800  0.30837520  1  0  0.95602  0  1.959072  0  0  0.80185  0  2.413649  0  0  0.847108  0  2.373621  0  0  0.556351  0.769933  0  2.44074  0
Cd  Cd1  1  0.78797988  0.50636557  0.19162439  1  0  0.956029  0  1.959052  0  0  0.801866  0  2.413625  0  0  0.847124  0  2.373598  0  0  0.55635  0.769952  0  2.440715  0
Cd  Cd2  1  0.78797966  0.49363359  0.69162453  1  0  0.955976  0  1.959139  0  0  0.801802  0  2.413715  0  0  0.84706  0  2.373689  0  0  0.556325  0.769885  0  2.440801  0
Cd  Cd3  1  0.21202121  0.49363138  0.80837422  1  0  0.956024  0  1.959052  0  0  0.80186  0  2.41362  0  0  0.847116  0  2.373595  0  0  0.556352  0.769943  0  2.440712  0
H  H4  1  0.82805721  0.44965286  0.40735489  1  0  0.3113  0  0.912766  0  0  0.292099  0  0.97924  0  0  0.299662  0  0.973865  0  0  0.272573  0.286671  0  0.983166  0
H  H5  1  0.17193751  0.44964928  0.09264250  1  0  0.311297  0  0.91272  0  0  0.292136  0  0.979141  0  0  0.299706  0  0.973756  0  0  0.272586  0.286713  0  0.983069  0
H  H6  1  0.17193867  0.55035105  0.59264282  1  0  0.311302  0  0.912744  0  0  0.292147  0  0.979152  0  0  0.299716  0  0.973768  0  0  0.272586  0.28672  0  0.98308  0
H  H7  1  0.82806489  0.55035115  0.90735617  1  0  0.311273  0  0.912762  0  0  0.292121  0  0.979169  0  0  0.299691  0  0.973783  0  0  0.272571  0.286691  0  0.983105  0
H  H8  1  0.69575294  0.42928659  0.47723099  1  0  0.320579  0  0.888761  0  0  0.300444  0  0.956221  0  0  0.308189  0  0.950379  0  0  0.278549  0.294902  0  0.96046  0
H  H9  1  0.30424696  0.42928037  0.02276726  1  0  0.320603  0  0.888761  0  0  0.300479  0  0.956184  0  0  0.308229  0  0.950336  0  0  0.27856  0.294937  0  0.960425  0
H  H10  1  0.30424426  0.57071849  0.52276740  1  0  0.320606  0  0.888744  0  0  0.300466  0  0.956204  0  0  0.308214  0  0.950358  0  0  0.278547  0.294924  0  0.960443  0
H  H11  1  0.69575678  0.57071890  0.97723269  1  0  0.320628  0  0.888744  0  0  0.300487  0  0.956182  0  0  0.308239  0  0.950336  0  0  0.278553  0.294945  0  0.960422  0
H  H12  1  0.64600871  0.34927905  0.38492198  1  0  0.311772  0  0.87837  0  0  0.294366  0  0.943162  0  0  0.300895  0  0.938647  0  0  0.290294  0.289674  0  0.946493  0
H  H13  1  0.35398722  0.34927460  0.11507712  1  0  0.311811  0  0.878328  0  0  0.294406  0  0.943127  0  0  0.30094  0  0.938605  0  0  0.290288  0.289712  0  0.946464  0
H  H14  1  0.35398849  0.65072254  0.61507641  1  0  0.311826  0  0.878295  0  0  0.294425  0  0.943088  0  0  0.300956  0  0.938569  0  0  0.290303  0.28973  0  0.946426  0
H  H15  1  0.64601392  0.65072583  0.88492268  1  0  0.311829  0  0.878296  0  0  0.294428  0  0.943083  0  0  0.300962  0  0.938561  0  0  0.29029  0.289734  0  0.94642  0
H  H16  1  0.09619595  0.88744508  0.31708799  1  0  0.100367  0  0.977554  0  0  0.109166  0  1.041808  0  0  0.111742  0  1.040278  0  0  0.103929  0.107249  0  1.043071  0
H  H17  1  0.90379835  0.88744269  0.18291492  1  0  0.100435  0  0.977517  0  0  0.109243  0  1.041755  0  0  0.111821  0  1.040222  0  0  0.103947  0.107324  0  1.043019  0
H  H18  1  0.90380409  0.11255418  0.68291657  1  0  0.100345  0  0.977606  0  0  0.109156  0  1.041844  0  0  0.111732  0  1.040318  0  0  0.10394  0.107238  0  1.043108  0
H  H19  1  0.09619770  0.11255193  0.81708700  1  0  0.100412  0  0.977547  0  0  0.1092  0  1.041807  0  0  0.111775  0  1.040273  0  0  0.103933  0.107282  0  1.043071  0
H  H20  1  0.33226026  0.13182458  0.34245256  1  0  0.113426  0  0.996401  0  0  0.118233  0  1.068247  0  0  0.12099  0  1.066507  0  0  0.102436  0.116171  0  1.06967  0
H  H21  1  0.66773932  0.13181951  0.15754879  1  0  0.11343  0  0.996469  0  0  0.118234  0  1.06832  0  0  0.12099  0  1.066581  0  0  0.102454  0.116173  0  1.069742  0
H  H22  1  0.66774096  0.86817468  0.65754906  1  0  0.113404  0  0.99648  0  0  0.118217  0  1.06831  0  0  0.120972  0  1.066573  0  0  0.102437  0.116154  0  1.069732  0
H  H23  1  0.33226184  0.86817395  0.84245162  1  0  0.113398  0  0.996417  0  0  0.118195  0  1.068294  0  0  0.120951  0  1.066556  0  0  0.102432  0.116134  0  1.069716  0
H  H24  1  0.60552304  0.70510051  0.35545044  1  0  0.095476  0  0.982651  0  0  0.101191  0  1.055344  0  0  0.103808  0  1.052099  0  0  0.113555  0.099232  0  1.057691  0
H  H25  1  0.39447482  0.70509744  0.14455116  1  0  0.095479  0  0.982562  0  0  0.101177  0  1.055281  0  0  0.103794  0  1.052036  0  0  0.113538  0.099215  0  1.057637  0
H  H26  1  0.39447818  0.29489760  0.64455117  1  0  0.095504  0  0.982633  0  0  0.101234  0  1.05531  0  0  0.10385  0  1.052065  0  0  0.113564  0.099274  0  1.05766  0
H  H27  1  0.60552503  0.29489950  0.85544858  1  0  0.095481  0  0.982616  0  0  0.101197  0  1.055312  0  0  0.103813  0  1.052068  0  0  0.113553  0.099238  0  1.057663  0
H  H28  1  0.66855124  0.12345730  0.32405901  1  0  0.068977  0  0.955004  0  0  0.080734  0  1.028353  0  0  0.081362  0  1.028281  0  0  0.098231  0.080165  0  1.028546  0
H  H29  1  0.33145209  0.12345786  0.17593953  1  0  0.068994  0  0.954992  0  0  0.080752  0  1.028327  0  0  0.08138  0  1.028258  0  0  0.098241  0.080184  0  1.028519  0
H  H30  1  0.33144858  0.87654197  0.67594013  1  0  0.068946  0  0.955039  0  0  0.080706  0  1.028386  0  0  0.081333  0  1.028318  0  0  0.098226  0.080138  0  1.028578  0
H  H31  1  0.66855162  0.87654141  0.82405982  1  0  0.068996  0  0.955022  0  0  0.08074  0  1.028359  0  0  0.081367  0  1.02829  0  0  0.098235  0.080172  0  1.028551  0
H  H32  1  0.78158195  0.94992772  0.35301746  1  0  0.081318  0  0.931961  0  0  0.096605  0  0.995217  0  0  0.097409  0  0.995232  0  0  0.106773  0.095918  0  0.99535  0
H  H33  1  0.21841622  0.94993033  0.14698276  1  0  0.08133  0  0.931948  0  0  0.096607  0  0.995216  0  0  0.097413  0  0.995227  0  0  0.106766  0.095918  0  0.995351  0
H  H34  1  0.21841922  0.05007039  0.64698295  1  0  0.081309  0  0.931957  0  0  0.096594  0  0.995226  0  0  0.0974  0  0.995237  0  0  0.106744  0.095906  0  0.995361  0
H  H35  1  0.78158232  0.05007126  0.85301690  1  0  0.081325  0  0.931989  0  0  0.096601  0  0.995237  0  0  0.097405  0  0.995251  0  0  0.106769  0.095913  0  0.995371  0
H  H36  1  0.59618278  0.12116136  0.47752490  1  0  0.091401  0  0.932608  0  0  0.105944  0  0.996057  0  0  0.107086  0  0.996711  0  0  0.095861  0.105057  0  0.995708  0
H  H37  1  0.40381661  0.12115522  0.02247221  1  0  0.091394  0  0.932598  0  0  0.10592  0  0.996055  0  0  0.107059  0  0.996715  0  0  0.095883  0.105035  0  0.995705  0
H  H38  1  0.40381437  0.87884488  0.52247228  1  0  0.091409  0  0.93261  0  0  0.105979  0  0.996025  0  0  0.107121  0  0.99668  0  0  0.095883  0.105092  0  0.995676  0
H  H39  1  0.59618710  0.87884405  0.97752714  1  0  0.091387  0  0.93263  0  0  0.10595  0  0.996063  0  0  0.107091  0  0.996719  0  0  0.095884  0.105063  0  0.995714  0
H  H40  1  0.77380080  0.99241816  0.49515619  1  0  0.090149  0  0.930492  0  0  0.106403  0  0.989259  0  0  0.107264  0  0.990147  0  0  0.097144  0.105702  0  0.988757  0
H  H41  1  0.22620006  0.99241060  0.00484485  1  0  0.090068  0  0.930562  0  0  0.106323  0  0.989341  0  0  0.107185  0  0.990227  0  0  0.09713  0.105623  0  0.988839  0
H  H42  1  0.22619652  0.00758692  0.50484521  1  0  0.090104  0  0.930567  0  0  0.106363  0  0.989347  0  0  0.107224  0  0.990232  0  0  0.09715  0.105662  0  0.988844  0
H  H43  1  0.77380236  0.00758750  0.99515442  1  0  0.090064  0  0.93058  0  0  0.10634  0  0.989356  0  0  0.107202  0  0.99024  0  0  0.097129  0.10564  0  0.988854  0
H  H44  1  0.89990763  0.24663046  0.52371273  1  0  0.078021  0  0.945675  0  0  0.089889  0  1.011768  0  0  0.090988  0  1.011556  0  0  0.099327  0.088935  0  1.01212  0
H  H45  1  0.10009160  0.24662337  0.97628672  1  0  0.078006  0  0.945692  0  0  0.089897  0  1.011752  0  0  0.090992  0  1.011544  0  0  0.099354  0.08895  0  1.012111  0
H  H46  1  0.10009094  0.75337462  0.47628754  1  0  0.077961  0  0.945742  0  0  0.089866  0  1.011805  0  0  0.090942  0  1.011617  0  0  0.099323  0.088917  0  1.012158  0
H  H47  1  0.89991085  0.75337706  0.02371316  1  0  0.077984  0  0.945687  0  0  0.089876  0  1.01175  0  0  0.090981  0  1.011531  0  0  0.099344  0.088927  0  1.012108  0
H  H48  1  0.94659243  0.20749525  0.42424605  1  0  0.072581  0  0.924155  0  0  0.086295  0  0.987487  0  0  0.087399  0  0.987013  0  0  0.101284  0.085357  0  0.988008  0
H  H49  1  0.05340580  0.20748914  0.07575114  1  0  0.072549  0  0.924308  0  0  0.086282  0  0.987596  0  0  0.087385  0  0.987123  0  0  0.10131  0.085354  0  0.988114  0
H  H50  1  0.05340739  0.79250983  0.57575308  1  0  0.072531  0  0.924293  0  0  0.086276  0  0.98758  0  0  0.087379  0  0.987102  0  0  0.101286  0.085341  0  0.988101  0
H  H51  1  0.94659662  0.79251129  0.92424814  1  0  0.072506  0  0.924303  0  0  0.086233  0  0.987608  0  0  0.087335  0  0.987136  0  0  0.10129  0.085302  0  0.988128  0
C  C52  1  0.23661669  0.88566479  0.32900114  1  0  -0.00739  0  3.766597  0  0  -0.040689  0  4.032512  0  0  -0.038794  0  4.052877  0  0  -0.015146  -0.041961  0  4.018774  0
C  C53  1  0.76338136  0.88566220  0.17099837  1  0  -0.007433  0  3.766708  0  0  -0.040739  0  4.032603  0  0  -0.038846  0  4.052969  0  0  -0.015141  -0.04201  0  4.018866  0
C  C54  1  0.76338713  0.11433215  0.67100062  1  0  -0.007397  0  3.766742  0  0  -0.040723  0  4.032675  0  0  -0.038831  0  4.053042  0  0  -0.015168  -0.041996  0  4.018938  0
C  C55  1  0.23661719  0.11433125  0.82900129  1  0  -0.007464  0  3.766849  0  0  -0.040761  0  4.03276  0  0  -0.038863  0  4.053123  0  0  -0.015156  -0.042034  0  4.019024  0
C  C56  1  0.35145529  0.00716577  0.34062358  1  0  -0.064391  0  3.671832  0  0  -0.103333  0  3.93177  0  0  -0.101417  0  3.949886  0  0  -0.004954  -0.104544  0  3.91966  0
C  C57  1  0.64854666  0.00716301  0.15937709  1  0  -0.064412  0  3.672014  0  0  -0.103355  0  3.931949  0  0  -0.101439  0  3.950065  0  0  -0.00496  -0.104567  0  3.919839  0
C  C58  1  0.64854722  0.99283234  0.65937811  1  0  -0.064306  0  3.671908  0  0  -0.10324  0  3.931826  0  0  -0.101322  0  3.949944  0  0  -0.004935  -0.104452  0  3.919718  0
C  C59  1  0.35145708  0.99283277  0.84062286  1  0  -0.064353  0  3.671925  0  0  -0.103294  0  3.931841  0  0  -0.101378  0  3.949959  0  0  -0.004967  -0.104504  0  3.919731  0
C  C60  1  0.49617467  0.78445456  0.34932346  1  0  0.167668  0  3.655968  0  0  0.104588  0  3.924789  0  0  0.118872  0  3.937919  0  0  0.131628  0.095336  0  3.915676  0
C  C61  1  0.50382464  0.78445627  0.15067896  1  0  0.167747  0  3.655843  0  0  0.104681  0  3.924674  0  0  0.118964  0  3.937804  0  0  0.131689  0.095429  0  3.915563  0
C  C62  1  0.50382789  0.21554587  0.65067943  1  0  0.167756  0  3.655691  0  0  0.104647  0  3.924523  0  0  0.11893  0  3.937656  0  0  0.131699  0.095395  0  3.91541  0
C  C63  1  0.49617393  0.21554416  0.84932131  1  0  0.167715  0  3.65589  0  0  0.104622  0  3.924732  0  0  0.118904  0  3.937863  0  0  0.131666  0.095369  0  3.915623  0
C  C64  1  0.67804617  0.02711870  0.36783454  1  0  0.001726  0  3.622344  0  0  -0.060878  0  3.878762  0  0  -0.056788  0  3.890432  0  0  -0.055721  -0.063512  0  3.870886  0
C  C65  1  0.32195447  0.02711898  0.13216488  1  0  0.001717  0  3.622273  0  0  -0.06087  0  3.878668  0  0  -0.056776  0  3.890332  0  0  -0.055695  -0.063503  0  3.870791  0
C  C66  1  0.32195625  0.97288173  0.63216473  1  0  0.001804  0  3.622291  0  0  -0.060809  0  3.878733  0  0  -0.056718  0  3.890403  0  0  -0.055673  -0.063442  0  3.870856  0
C  C67  1  0.67804667  0.97288145  0.86783493  1  0  0.001669  0  3.622377  0  0  -0.060868  0  3.878739  0  0  -0.056777  0  3.890406  0  0  -0.055687  -0.063502  0  3.870864  0
C  C68  1  0.71748968  0.08634027  0.45526963  1  0  -0.162665  0  3.651596  0  0  -0.202058  0  3.910653  0  0  -0.204537  0  3.923705  0  0  -0.164066  -0.200197  0  3.901625  0
C  C69  1  0.28250973  0.08633765  0.04472923  1  0  -0.162581  0  3.651614  0  0  -0.201963  0  3.91066  0  0  -0.204443  0  3.923709  0  0  -0.164124  -0.200093  0  3.901637  0
C  C70  1  0.28250884  0.91366016  0.54472943  1  0  -0.162637  0  3.651595  0  0  -0.202058  0  3.910689  0  0  -0.204539  0  3.923735  0  0  -0.164131  -0.200192  0  3.901666  0
C  C71  1  0.71749014  0.91366046  0.95527111  1  0  -0.162533  0  3.651601  0  0  -0.201993  0  3.910681  0  0  -0.204474  0  3.923734  0  0  -0.164122  -0.200125  0  3.901659  0
C  C72  1  0.84110639  0.22437069  0.46109369  1  0  0.083326  0  3.523208  0  0  0.028538  0  3.778314  0  0  0.032614  0  3.788468  0  0  -0.062249  0.02593  0  3.771387  0
C  C73  1  0.15888931  0.22436328  0.03890459  1  0  0.083305  0  3.523304  0  0  0.028474  0  3.77844  0  0  0.03256  0  3.788585  0  0  -0.062323  0.025837  0  3.771554  0
C  C74  1  0.15888956  0.77563206  0.53890583  1  0  0.083403  0  3.523324  0  0  0.028551  0  3.778471  0  0  0.032651  0  3.788618  0  0  -0.062262  0.025929  0  3.771563  0
C  C75  1  0.84111310  0.77563715  0.96109468  1  0  0.083361  0  3.523244  0  0  0.028522  0  3.778421  0  0  0.032601  0  3.788567  0  0  -0.062316  0.02589  0  3.771528  0
N  N76  1  0.32845534  0.74739161  0.33474091  1  0  -0.396289  0  3.313009  0  0  -0.319106  0  3.594318  0  0  -0.342086  0  3.615777  0  0  -0.371236  -0.3034  0  3.579259  0
N  N77  1  0.67154266  0.74739123  0.16526257  1  0  -0.39633  0  3.313023  0  0  -0.319148  0  3.594336  0  0  -0.342129  0  3.615799  0  0  -0.371287  -0.303441  0  3.579274  0
N  N78  1  0.67154853  0.25260650  0.66526205  1  0  -0.396307  0  3.313001  0  0  -0.319096  0  3.594308  0  0  -0.342076  0  3.615769  0  0  -0.37125  -0.303391  0  3.579246  0
N  N79  1  0.32845466  0.25260571  0.83473883  1  0  -0.396267  0  3.313096  0  0  -0.319064  0  3.594379  0  0  -0.342045  0  3.615843  0  0  -0.371232  -0.303359  0  3.57932  0
N  N80  1  0.51519638  0.94111513  0.35299423  1  0  -0.05748  0  3.558207  0  0  0.039361  0  3.773618  0  0  0.024661  0  3.799666  0  0  -0.244305  0.04907  0  3.755893  0
N  N81  1  0.48480443  0.94111564  0.14700732  1  0  -0.057528  0  3.558275  0  0  0.039307  0  3.773683  0  0  0.024606  0  3.799729  0  0  -0.24433  0.049017  0  3.755958  0
N  N82  1  0.48480614  0.05888181  0.64700745  1  0  -0.057639  0  3.558098  0  0  0.039207  0  3.773535  0  0  0.024506  0  3.799582  0  0  -0.24437  0.048918  0  3.75581  0
N  N83  1  0.51519674  0.05888363  0.85299308  1  0  -0.05751  0  3.558253  0  0  0.039314  0  3.773658  0  0  0.024615  0  3.799704  0  0  -0.244313  0.049024  0  3.755934  0
N  N84  1  0.74687091  0.36944810  0.43121554  1  0  -0.484589  0  3.224215  0  0  -0.432569  0  3.413129  0  0  -0.447918  0  3.412894  0  0  -0.613771  -0.421999  0  3.413607  0
N  N85  1  0.25312633  0.36944328  0.06878307  1  0  -0.484592  0  3.223985  0  0  -0.432597  0  3.412843  0  0  -0.44796  0  3.412598  0  0  -0.613747  -0.422028  0  3.413324  0
N  N86  1  0.25312629  0.63055465  0.56878285  1  0  -0.484653  0  3.224121  0  0  -0.43267  0  3.413002  0  0  -0.448027  0  3.412757  0  0  -0.613761  -0.4221  0  3.413483  0
N  N87  1  0.74687611  0.63055715  0.93121681  1  0  -0.484605  0  3.223974  0  0  -0.43259  0  3.412806  0  0  -0.447959  0  3.412571  0  0  -0.613715  -0.422015  0  3.413293  0
Cl  Cl88  1  0.31233851  0.37055082  0.44327929  1  0  -0.613844  0  0.858887  0  0  -0.561787  0  1.109331  0  0  -0.577798  0  1.090874  0  0  -0.339551  -0.550139  0  1.121799  0
Cl  Cl89  1  0.68765616  0.37055211  0.05671977  1  0  -0.613852  0  0.858877  0  0  -0.561806  0  1.109324  0  0  -0.577818  0  1.090867  0  0  -0.339562  -0.55016  0  1.121799  0
Cl  Cl90  1  0.68765744  0.62945194  0.55672023  1  0  -0.613823  0  0.858869  0  0  -0.561795  0  1.109348  0  0  -0.577805  0  1.090892  0  0  -0.339557  -0.55014  0  1.121798  0
Cl  Cl91  1  0.31234494  0.62944716  0.94327883  1  0  -0.613831  0  0.858862  0  0  -0.561803  0  1.10933  0  0  -0.577814  0  1.090873  0  0  -0.339559  -0.550149  0  1.121789  0
Cl  Cl92  1  0.08778245  0.63491480  0.15535321  1  0  -0.576151  0  1.025689  0  0  -0.520726  0  1.295211  0  0  -0.537698  0  1.275709  0  0  -0.275408  -0.508294  0  1.308352  0
Cl  Cl93  1  0.91221118  0.63491458  0.34464263  1  0  -0.576139  0  1.025683  0  0  -0.520702  0  1.295212  0  0  -0.53767  0  1.275714  0  0  -0.275413  -0.508301  0  1.308406  0
Cl  Cl94  1  0.91221477  0.36508911  0.84464578  1  0  -0.576132  0  1.025696  0  0  -0.520714  0  1.295204  0  0  -0.537683  0  1.275699  0  0  -0.275409  -0.508292  0  1.308364  0
Cl  Cl95  1  0.08778462  0.36508934  0.65535328  1  0  -0.576124  0  1.025702  0  0  -0.520694  0  1.295195  0  0  -0.537665  0  1.275695  0  0  -0.275401  -0.508277  0  1.308358  0
Cl  Cl96  1  0.49999991  0.39066106  0.24999879  1  0  -0.592767  0  0.95963  0  0  -0.533591  0  1.243091  0  0  -0.549587  0  1.220732  0  0  -0.293084  -0.52196  0  1.258373  0
Cl  Cl97  1  0.49999864  0.60933821  0.75000087  1  0  -0.592774  0  0.959654  0  0  -0.533606  0  1.243135  0  0  -0.549596  0  1.220762  0  0  -0.293091  -0.521979  0  1.258418  0
Cl  Cl98  1  0.99999830  0.27949950  0.24999880  1  0  -0.569875  0  0.93674  0  0  -0.495564  0  1.194739  0  0  -0.516486  0  1.177801  0  0  -0.309947  -0.480563  0  1.20603  0
Cl  Cl99  1  0.00000019  0.72050209  0.74999966  1  0  -0.569877  0  0.936767  0  0  -0.495548  0  1.194742  0  0  -0.516471  0  1.177804  0  0  -0.309948  -0.480546  0  1.206023  0
