# generated using pymatgen
data_CdH15C17S2N11
_symmetry_space_group_name_H-M   'P 1'
_cell_length_a   8.77840381
_cell_length_b   9.85448373
_cell_length_c   12.71287042
_cell_angle_alpha   104.14595862
_cell_angle_beta   94.71919256
_cell_angle_gamma   100.67020954
_symmetry_Int_Tables_number   1
_chemical_formula_structural   CdH15C17S2N11
_chemical_formula_sum   'Cd2 H30 C34 S4 N22'
_cell_volume   1038.53393510
_cell_formula_units_Z   2
loop_
 _symmetry_equiv_pos_site_id
 _symmetry_equiv_pos_as_xyz
  1  'x, y, z'
loop_
 _atom_site_type_symbol
 _atom_site_label
 _atom_site_symmetry_multiplicity
 _atom_site_fract_x
 _atom_site_fract_y
 _atom_site_fract_z
 _atom_site_occupancy
 _atom_site_hle17_bader_spin_density
 _atom_site_hle17_ddec_charge
 _atom_site_hle17_ddec_spin_density
 _atom_site_hle17_ddec_sum_bond_order
 _atom_site_hle17_magmom
 _atom_site_hse06_10hf_bader_spin_density
 _atom_site_hse06_10hf_ddec_charge
 _atom_site_hse06_10hf_ddec_spin_density
 _atom_site_hse06_10hf_ddec_sum_bond_order
 _atom_site_hse06_10hf_magmom
 _atom_site_hse06_bader_spin_density
 _atom_site_hse06_ddec_charge
 _atom_site_hse06_ddec_spin_density
 _atom_site_hse06_ddec_sum_bond_order
 _atom_site_hse06_magmom
 _atom_site_pbe_bader_spin_density
 _atom_site_pbe_cm5_charge
 _atom_site_pbe_ddec_charge
 _atom_site_pbe_ddec_spin_density
 _atom_site_pbe_ddec_sum_bond_order
 _atom_site_pbe_magmom
Cd  Cd0  1  0.23921872  0.27826338  0.37079026  1  0  1.014859  0  1.959417  0  0  0.83209  0  2.427563  0  0  0.877815  0  2.388685  0  0  0.760587  0.800022  0  2.453966  0
Cd  Cd1  1  0.76078747  0.72173932  0.62921030  1  0  1.014858  0  1.959446  0  0  0.832092  0  2.427596  0  0  0.877816  0  2.388718  0  0  0.760598  0.800026  0  2.453997  0
H  H2  1  0.98050655  0.25378417  0.56749040  1  0  0.086815  0  0.965299  0  0  0.092555  0  1.035816  0  0  0.094829  0  1.033476  0  0  0.11944  0.090938  0  1.037361  0
H  H3  1  0.01949537  0.74621966  0.43250382  1  0  0.086693  0  0.96542  0  0  0.092464  0  1.035904  0  0  0.094736  0  1.033566  0  0  0.119417  0.09087  0  1.037427  0
H  H4  1  0.46849649  0.29146912  0.62336246  1  0  0.108445  0  0.954047  0  0  0.112278  0  1.027889  0  0  0.115059  0  1.024443  0  0  0.138802  0.110241  0  1.030281  0
H  H5  1  0.53150481  0.70852717  0.37663498  1  0  0.108443  0  0.953993  0  0  0.112272  0  1.027838  0  0  0.115051  0  1.024397  0  0  0.138803  0.110235  0  1.030232  0
H  H6  1  0.50203748  0.35793924  0.82775817  1  0  0.095429  0  0.942157  0  0  0.107401  0  1.010129  0  0  0.108353  0  1.009854  0  0  0.116078  0.10665  0  1.010401  0
H  H7  1  0.49796063  0.64205810  0.17224007  1  0  0.095415  0  0.942172  0  0  0.10739  0  1.010142  0  0  0.10834  0  1.009871  0  0  0.116068  0.106636  0  1.010421  0
H  H8  1  0.34044597  0.27702043  0.88371934  1  0  0.088898  0  0.971595  0  0  0.095277  0  1.0494  0  0  0.097295  0  1.048058  0  0  0.098317  0.09353  0  1.051353  0
H  H9  1  0.65955102  0.72297693  0.11627647  1  0  0.088899  0  0.971607  0  0  0.095286  0  1.049388  0  0  0.097297  0  1.048055  0  0  0.098316  0.09354  0  1.051341  0
H  H10  1  0.24201830  0.43098867  0.02352389  1  0  0.100779  0  0.984874  0  0  0.11081  0  1.048812  0  0  0.112651  0  1.049298  0  0  0.098111  0.108471  0  1.050415  0
H  H11  1  0.75797803  0.56901083  0.97647309  1  0  0.1008  0  0.984843  0  0  0.110839  0  1.048771  0  0  0.11268  0  1.049257  0  0  0.098131  0.108499  0  1.050377  0
H  H12  1  0.26029664  0.87261820  0.02575372  1  0  0.090824  0  0.998948  0  0  0.095158  0  1.076433  0  0  0.097791  0  1.07625  0  0  0.089375  0.092103  0  1.078619  0
H  H13  1  0.73969992  0.12738235  0.97424505  1  0  0.090823  0  0.99898  0  0  0.095158  0  1.076453  0  0  0.097788  0  1.076271  0  0  0.089377  0.092104  0  1.078635  0
H  H14  1  0.45895593  0.60386105  0.77912124  1  0  0.109967  0  0.962791  0  0  0.119417  0  1.029301  0  0  0.121777  0  1.028864  0  0  0.102635  0.117771  0  1.02959  0
H  H15  1  0.54104242  0.39613736  0.22087801  1  0  0.109921  0  0.962794  0  0  0.11938  0  1.029302  0  0  0.121739  0  1.028865  0  0  0.102619  0.117737  0  1.029581  0
H  H16  1  0.10273136  0.97956504  0.58657739  1  0  0.083947  0  0.938683  0  0  0.095175  0  0.999775  0  0  0.096745  0  0.998414  0  0  0.128582  0.094019  0  1.00069  0
H  H17  1  0.89726746  0.02043549  0.41342387  1  0  0.083955  0  0.938605  0  0  0.095176  0  0.999712  0  0  0.096745  0  0.998352  0  0  0.128569  0.094019  0  1.000627  0
H  H18  1  0.08999654  0.69339927  0.78368255  1  0  0.114137  0  0.92881  0  0  0.125422  0  0.986358  0  0  0.127689  0  0.984284  0  0  0.143691  0.123969  0  0.987424  0
H  H19  1  0.91000295  0.30659913  0.21631677  1  0  0.114098  0  0.928855  0  0  0.125416  0  0.986368  0  0  0.127683  0  0.984295  0  0  0.143685  0.123962  0  0.987433  0
H  H20  1  0.50402220  0.85837915  0.79854849  1  0  0.101122  0  0.929249  0  0  0.113704  0  0.995846  0  0  0.114028  0  0.996108  0  0  0.116399  0.113428  0  0.99564  0
H  H21  1  0.49597866  0.14162032  0.20145269  1  0  0.101113  0  0.929263  0  0  0.113691  0  0.995862  0  0  0.114015  0  0.996125  0  0  0.116394  0.113416  0  0.995651  0
H  H22  1  0.42869438  0.97551309  0.90307488  1  0  0.091025  0  0.934548  0  0  0.102497  0  1.004495  0  0  0.103768  0  1.003482  0  0  0.108471  0.101372  0  1.005803  0
H  H23  1  0.57130419  0.02448637  0.09692616  1  0  0.091047  0  0.93453  0  0  0.102521  0  1.004464  0  0  0.103792  0  1.003454  0  0  0.10848  0.101396  0  1.005772  0
H  H24  1  0.05721679  0.93707256  0.17858108  1  0  0.104363  0  0.955715  0  0  0.107367  0  1.032681  0  0  0.110455  0  1.029097  0  0  0.1293  0.105175  0  1.03503  0
H  H25  1  0.94278523  0.06292692  0.82141859  1  0  0.104328  0  0.955739  0  0  0.107325  0  1.032727  0  0  0.110413  0  1.029139  0  0  0.129292  0.105135  0  1.035075  0
H  H26  1  0.46161937  0.01806115  0.40590607  1  0  0.09042  0  0.933082  0  0  0.099582  0  0.995609  0  0  0.10149  0  0.9933  0  0  0.132248  0.098181  0  0.997185  0
H  H27  1  0.53838097  0.98193615  0.59409701  1  0  0.090396  0  0.933111  0  0  0.099613  0  0.995585  0  0  0.101522  0  0.993272  0  0  0.132268  0.098212  0  0.997161  0
H  H28  1  0.02945546  0.66535757  0.11024205  1  0  0.094484  0  0.937536  0  0  0.102686  0  1.013264  0  0  0.103776  0  1.012717  0  0  0.115244  0.101718  0  1.014  0
H  H29  1  0.97054288  0.33464083  0.88975798  1  0  0.094469  0  0.937519  0  0  0.102676  0  1.013251  0  0  0.103773  0  1.012697  0  0  0.115258  0.101709  0  1.013985  0
H  H30  1  0.16068034  0.58421639  0.17494311  1  0  0.108726  0  0.905982  0  0  0.121263  0  0.969783  0  0  0.122868  0  0.967972  0  0  0.120819  0.11993  0  0.971181  0
H  H31  1  0.83931778  0.41578097  0.82505356  1  0  0.108689  0  0.906023  0  0  0.121249  0  0.969804  0  0  0.122854  0  0.967993  0  0  0.120808  0.119915  0  0.971203  0
C  C32  1  0.09851189  0.26628206  0.60710120  1  0  0.183853  0  3.743799  0  0  0.133179  0  4.035423  0  0  0.144269  0  4.048355  0  0  0.13309  0.126123  0  4.025996  0
C  C33  1  0.90148903  0.73371748  0.39289370  1  0  0.184082  0  3.743745  0  0  0.133385  0  4.035371  0  0  0.144475  0  4.048306  0  0  0.133204  0.126305  0  4.025937  0
C  C34  1  0.34579473  0.28673033  0.63192608  1  0  0.183568  0  3.619554  0  0  0.107953  0  3.88022  0  0  0.121963  0  3.891972  0  0  0.163913  0.099113  0  3.871807  0
C  C35  1  0.65420592  0.71326810  0.36807173  1  0  0.183591  0  3.619518  0  0  0.107955  0  3.880175  0  0  0.12196  0  3.891933  0  0  0.163919  0.099117  0  3.871756  0
C  C36  1  0.37931142  0.35634680  0.83867120  1  0  -0.065591  0  3.645465  0  0  -0.143026  0  3.886126  0  0  -0.139648  0  3.895446  0  0  -0.04572  -0.145021  0  3.879875  0
C  C37  1  0.62068808  0.64365162  0.16132733  1  0  -0.065568  0  3.645452  0  0  -0.143057  0  3.886171  0  0  -0.139682  0  3.895508  0  0  -0.045704  -0.145054  0  3.879921  0
C  C38  1  0.35354009  0.50194411  0.89591797  1  0  0.093386  0  3.755754  0  0  0.11507  0  3.999742  0  0  0.114731  0  4.023666  0  0  -0.008775  0.115708  0  3.982652  0
C  C39  1  0.64646104  0.49805645  0.10408108  1  0  0.093441  0  3.755629  0  0  0.115101  0  3.999653  0  0  0.114762  0  4.02358  0  0  -0.008748  0.11574  0  3.982563  0
C  C40  1  0.27620269  0.52091835  0.98852325  1  0  -0.159555  0  3.695982  0  0  -0.184442  0  3.93158  0  0  -0.18747  0  3.953017  0  0  -0.088594  -0.18194  0  3.917796  0
C  C41  1  0.72379908  0.47908006  0.01147620  1  0  -0.159615  0  3.695851  0  0  -0.184496  0  3.93147  0  0  -0.187524  0  3.952906  0  0  -0.088616  -0.181995  0  3.91769  0
C  C42  1  0.24342858  0.65415928  0.03694423  1  0  0.084172  0  3.748327  0  0  0.107954  0  3.986007  0  0  0.10714  0  4.010311  0  0  -0.011964  0.108425  0  3.969278  0
C  C43  1  0.75656699  0.34583697  0.96305443  1  0  0.084256  0  3.748206  0  0  0.108036  0  3.985908  0  0  0.107225  0  4.010207  0  0  -0.011939  0.108507  0  3.969182  0
C  C44  1  0.28863452  0.76870059  0.99152501  1  0  -0.166082  0  3.708987  0  0  -0.198498  0  3.956133  0  0  -0.201678  0  3.977759  0  0  -0.095675  -0.19575  0  3.942328  0
C  C45  1  0.71136267  0.23129780  0.00847573  1  0  -0.166217  0  3.70909  0  0  -0.198612  0  3.956256  0  0  -0.201789  0  3.977879  0  0  -0.095734  -0.195865  0  3.942451  0
C  C46  1  0.36685967  0.75054524  0.89910201  1  0  0.068204  0  3.795947  0  0  0.093373  0  4.040119  0  0  0.091936  0  4.065377  0  0  -0.015615  0.094613  0  4.022282  0
C  C47  1  0.63313753  0.24945316  0.10089717  1  0  0.068292  0  3.796018  0  0  0.093403  0  4.040267  0  0  0.091964  0  4.065529  0  0  -0.015632  0.094642  0  4.022427  0
C  C48  1  0.39957685  0.61738692  0.85190987  1  0  -0.150269  0  3.684914  0  0  -0.18688  0  3.934657  0  0  -0.190291  0  3.957123  0  0  -0.089046  -0.184059  0  3.91857  0
C  C49  1  0.60042679  0.38261469  0.14809189  1  0  -0.15029  0  3.684863  0  0  -0.186861  0  3.934586  0  0  -0.190275  0  3.95706  0  0  -0.089058  -0.184039  0  3.918498  0
C  C50  1  0.13651538  0.92320606  0.64511795  1  0  0.190973  0  3.736461  0  0  0.139939  0  4.030103  0  0  0.150802  0  4.044137  0  0  0.137476  0.132939  0  4.020135  0
C  C51  1  0.86348255  0.07679554  0.35488267  1  0  0.190994  0  3.736455  0  0  0.139971  0  4.030068  0  0  0.150832  0  4.044111  0  0  0.13753  0.132971  0  4.0201  0
C  C52  1  0.12724415  0.77699527  0.74393362  1  0  0.176121  0  3.640347  0  0  0.101109  0  3.897506  0  0  0.114723  0  3.910211  0  0  0.16053  0.092417  0  3.888497  0
C  C53  1  0.87275444  0.22300420  0.25606585  1  0  0.176068  0  3.640327  0  0  0.101034  0  3.897475  0  0  0.114642  0  3.910188  0  0  0.160489  0.092343  0  3.888465  0
C  C54  1  0.40426969  0.86941145  0.84417901  1  0  -0.054152  0  3.629197  0  0  -0.135031  0  3.875944  0  0  -0.130398  0  3.88509  0  0  -0.043718  -0.137845  0  3.869759  0
C  C55  1  0.59572915  0.13058910  0.15582068  1  0  -0.054235  0  3.629216  0  0  -0.135069  0  3.875922  0  0  -0.130444  0  3.88508  0  0  -0.043717  -0.137886  0  3.869748  0
C  C56  1  0.15934408  0.92796622  0.22864606  1  0  0.174429  0  3.640583  0  0  0.097491  0  3.909944  0  0  0.111802  0  3.921103  0  0  0.159646  0.08847  0  3.901985  0
C  C57  1  0.84066001  0.07203222  0.77135118  1  0  0.174434  0  3.640618  0  0  0.097532  0  3.909986  0  0  0.11185  0  3.921134  0  0  0.159653  0.088509  0  3.902029  0
C  C58  1  0.36366713  0.96383737  0.34283343  1  0  0.200216  0  3.733925  0  0  0.146499  0  4.029124  0  0  0.158195  0  4.04128  0  0  0.139424  0.139023  0  4.02031  0
C  C59  1  0.63633323  0.03615995  0.65716808  1  0  0.200264  0  3.734005  0  0  0.146509  0  4.029196  0  0  0.158206  0  4.041347  0  0  0.139422  0.139033  0  4.020383  0
C  C60  1  0.15381098  0.66996071  0.13455830  1  0  -0.062538  0  3.642319  0  0  -0.141482  0  3.890269  0  0  -0.137058  0  3.89861  0  0  -0.040327  -0.143883  0  3.884216  0
C  C61  1  0.84618736  0.33003769  0.86544173  1  0  -0.062472  0  3.642226  0  0  -0.141432  0  3.890233  0  0  -0.137009  0  3.898566  0  0  -0.040296  -0.143834  0  3.884184  0
C  C62  1  0.20275147  0.22285546  0.10627576  1  0  0.29189  0  4.075772  0  0  0.275361  0  4.376309  0  0  0.29839  0  4.389828  0  0  0.130933  0.25973  0  4.367376  0
C  C63  1  0.79724962  0.77714506  0.89372643  1  0  0.292023  0  4.07598  0  0  0.275498  0  4.37649  0  0  0.298523  0  4.390006  0  0  0.131033  0.259868  0  4.367563  0
C  C64  1  0.37268888  0.61848559  0.53511620  1  0  0.30593  0  4.017608  0  0  0.285505  0  4.322426  0  0  0.307676  0  4.337104  0  0  0.140303  0.270501  0  4.311959  0
C  C65  1  0.62731734  0.38152241  0.46489011  1  0  0.305971  0  4.017916  0  0  0.285548  0  4.32271  0  0  0.307716  0  4.337391  0  0  0.140332  0.270545  0  4.312241  0
S  S66  1  0.20771235  0.55779211  0.45412187  1  0  -0.343535  0  2.137055  0  0  -0.31696  0  2.461405  0  0  -0.333705  0  2.454983  0  0  -0.153378  -0.305196  0  2.46526  0
S  S67  1  0.79228772  0.44220935  0.54589302  1  0  -0.343546  0  2.136914  0  0  -0.316979  0  2.461285  0  0  -0.333727  0  2.454867  0  0  -0.153396  -0.305213  0  2.465132  0
S  S68  1  0.18653221  0.11703878  0.98493804  1  0  -0.361971  0  2.091444  0  0  -0.34374  0  2.398065  0  0  -0.358839  0  2.394788  0  0  -0.158458  -0.332648  0  2.402521  0
S  S69  1  0.81345638  0.88296705  0.01506599  1  0  -0.362132  0  2.091418  0  0  -0.343901  0  2.398034  0  0  -0.359002  0  2.394751  0  0  -0.158529  -0.332807  0  2.402491  0
N  N70  1  0.22561322  0.25819129  0.55222678  1  0  -0.42871  0  3.207666  0  0  -0.356502  0  3.494429  0  0  -0.378906  0  3.510481  0  0  -0.354992  -0.341253  0  3.482815  0
N  N71  1  0.77438998  0.74180822  0.44776983  1  0  -0.428779  0  3.207655  0  0  -0.356569  0  3.494435  0  0  -0.378974  0  3.510487  0  0  -0.355048  -0.341321  0  3.48283  0
N  N72  1  0.29133568  0.30933024  0.72897645  1  0  0.055377  0  3.559236  0  0  0.17824  0  3.742157  0  0  0.168562  0  3.764609  0  0  -0.129056  0.183724  0  3.728295  0
N  N73  1  0.70866407  0.69066927  0.27102074  1  0  0.055361  0  3.559248  0  0  0.178294  0  3.742093  0  0  0.168643  0  3.764497  0  0  -0.129044  0.183778  0  3.72823  0
N  N74  1  0.13353659  0.29700832  0.71500629  1  0  -0.275843  0  2.870534  0  0  -0.277357  0  3.142162  0  0  -0.285565  0  3.156953  0  0  -0.223173  -0.271385  0  3.13165  0
N  N75  1  0.86646443  0.70299657  0.28498887  1  0  -0.275916  0  2.870491  0  0  -0.277461  0  3.14212  0  0  -0.285678  0  3.156913  0  0  -0.223234  -0.271489  0  3.131618  0
N  N76  1  0.03931631  0.81210307  0.66798483  1  0  -0.416694  0  3.198194  0  0  -0.347791  0  3.488254  0  0  -0.369357  0  3.503799  0  0  -0.349796  -0.333177  0  3.477271  0
N  N77  1  0.96068254  0.18789748  0.33201408  1  0  -0.416637  0  3.198175  0  0  -0.347739  0  3.488248  0  0  -0.3693  0  3.50378  0  0  -0.349764  -0.333123  0  3.477258  0
N  N78  1  0.27812086  0.95871470  0.70259233  1  0  -0.271032  0  2.847469  0  0  -0.273181  0  3.117282  0  0  -0.281424  0  3.131992  0  0  -0.224029  -0.267732  0  3.107507  0
N  N79  1  0.72187684  0.04128584  0.29740729  1  0  -0.271157  0  2.847569  0  0  -0.273293  0  3.117371  0  0  -0.281545  0  3.132084  0  0  -0.224101  -0.267845  0  3.107596  0
N  N80  1  0.26984867  0.86406452  0.76503554  1  0  0.054086  0  3.53257  0  0  0.177444  0  3.716264  0  0  0.167741  0  3.738239  0  0  -0.126081  0.183041  0  3.702599  0
N  N81  1  0.73014902  0.13593602  0.23496408  1  0  0.054267  0  3.532413  0  0  0.177588  0  3.716136  0  0  0.167914  0  3.738063  0  0  -0.12603  0.183183  0  3.702469  0
N  N82  1  0.25294131  0.03053252  0.30897429  1  0  -0.415532  0  3.178543  0  0  -0.347623  0  3.469714  0  0  -0.368997  0  3.484438  0  0  -0.351095  -0.33307  0  3.459063  0
N  N83  1  0.74705905  0.96946479  0.69102723  1  0  -0.415508  0  3.178679  0  0  -0.347614  0  3.469868  0  0  -0.368986  0  3.484584  0  0  -0.351087  -0.333063  0  3.459223  0
N  N84  1  0.34362870  0.82709552  0.28829565  1  0  -0.283401  0  2.873762  0  0  -0.283775  0  3.14753  0  0  -0.292385  0  3.161153  0  0  -0.221182  -0.277629  0  3.138337  0
N  N85  1  0.65637143  0.17290073  0.71170486  1  0  -0.283429  0  2.873804  0  0  -0.283784  0  3.147623  0  0  -0.29239  0  3.161248  0  0  -0.221172  -0.277639  0  3.138438  0
N  N86  1  0.21226555  0.80616687  0.21626577  1  0  0.053328  0  3.565854  0  0  0.175404  0  3.746464  0  0  0.165032  0  3.769753  0  0  -0.13203  0.180866  0  3.732872  0
N  N87  1  0.78773342  0.19382937  0.78373545  1  0  0.053319  0  3.565836  0  0  0.175321  0  3.746533  0  0  0.164924  0  3.769868  0  0  -0.132079  0.180783  0  3.732945  0
N  N88  1  0.21627724  0.30317690  0.19515292  1  0  -0.594585  0  2.86166  0  0  -0.536306  0  3.133709  0  0  -0.557972  0  3.138594  0  0  -0.421778  -0.52139  0  3.130124  0
N  N89  1  0.78372540  0.69683539  0.80485321  1  0  -0.594588  0  2.861948  0  0  -0.536315  0  3.133993  0  0  -0.557974  0  3.138875  0  0  -0.42182  -0.521394  0  3.130393  0
N  N90  1  0.49142192  0.66532715  0.59563034  1  0  -0.550244  0  2.864716  0  0  -0.494557  0  3.143797  0  0  -0.515601  0  3.150199  0  0  -0.398928  -0.480184  0  3.139184  0
N  N91  1  0.50859375  0.33468200  0.40437204  1  0  -0.550261  0  2.865053  0  0  -0.494589  0  3.144151  0  0  -0.515633  0  3.150556  0  0  -0.398919  -0.480214  0  3.139534  0
