# generated using pymatgen
data_MnH4(CN)8
_symmetry_space_group_name_H-M   'P 1'
_cell_length_a   6.25273235
_cell_length_b   7.54126373
_cell_length_c   23.13469446
_cell_angle_alpha   90.00036363
_cell_angle_beta   89.99997571
_cell_angle_gamma   89.99944971
_symmetry_Int_Tables_number   1
_chemical_formula_structural   MnH4(CN)8
_chemical_formula_sum   'Mn4 H16 C32 N32'
_cell_volume   1090.88190112
_cell_formula_units_Z   4
loop_
 _symmetry_equiv_pos_site_id
 _symmetry_equiv_pos_as_xyz
  1  'x, y, z'
loop_
 _atom_site_type_symbol
 _atom_site_label
 _atom_site_symmetry_multiplicity
 _atom_site_fract_x
 _atom_site_fract_y
 _atom_site_fract_z
 _atom_site_occupancy
 _atom_site_hle17_ddec_charge
 _atom_site_hle17_ddec_spin_density
 _atom_site_hle17_ddec_sum_bond_order
 _atom_site_hle17_magmom
 _atom_site_hse06_10hf_ddec_charge
 _atom_site_hse06_10hf_ddec_spin_density
 _atom_site_hse06_10hf_ddec_sum_bond_order
 _atom_site_hse06_10hf_magmom
 _atom_site_hse06_ddec_charge
 _atom_site_hse06_ddec_spin_density
 _atom_site_hse06_ddec_sum_bond_order
 _atom_site_hse06_magmom
 _atom_site_pbe_cm5_charge
 _atom_site_pbe_ddec_charge
 _atom_site_pbe_ddec_spin_density
 _atom_site_pbe_ddec_sum_bond_order
 _atom_site_pbe_magmom
Mn  Mn0  1  0.21740539  0.24999950  0.66709572  1  1.120566  4.762379  2.02199  4.645  0.952362  4.667506  2.570496  4.477  1.003871  4.721342  2.501462  4.551  0.67564  0.911464  4.612156  2.623181  4.403
Mn  Mn1  1  0.71740621  0.75000017  0.83290433  1  1.120561  4.762371  2.022024  4.645  0.952368  4.667496  2.57052  4.477  1.003875  4.721329  2.501488  4.551  0.675645  0.911468  4.612143  2.623203  4.403
Mn  Mn2  1  0.78259731  0.75000434  0.33290420  1  1.120545  4.762354  2.022051  4.645  0.952351  4.667478  2.570561  4.477  1.003856  4.721315  2.501528  4.551  0.675623  0.911449  4.612128  2.623249  4.403
Mn  Mn3  1  0.28259010  0.25000234  0.16709474  1  1.12055  4.762428  2.022018  4.645  0.952331  4.667548  2.570548  4.477  1.003843  4.721382  2.501507  4.551  0.675617  0.91143  4.6122  2.623235  4.403
H  H4  1  0.15205014  0.24999894  0.44504611  1  0.086847  0.000187  0.9685  0.0  0.088922  0.0003  1.038555  0.0  0.091723  0.000224  1.037264  0.0  0.113701  0.086879  0.000377  1.039509  0.0
H  H5  1  0.65205141  0.74999819  0.05495327  1  0.086876  0.000185  0.968487  0.0  0.088937  0.0003  1.03856  0.0  0.091746  0.000225  1.037258  0.0  0.113712  0.086894  0.000377  1.039513  0.0
H  H6  1  0.84795256  0.74999562  0.55495208  1  0.086948  0.000186  0.968382  0.0  0.089005  0.0003  1.038455  0.0  0.091818  0.000225  1.037148  0.0  0.113746  0.086962  0.000377  1.03941  0.0
H  H7  1  0.34794649  0.24999902  0.94504752  1  0.086898  0.000187  0.968466  0.0  0.088954  0.0003  1.038544  0.0  0.091761  0.000224  1.037245  0.0  0.113703  0.086909  0.000377  1.039497  0.0
H  H8  1  0.75066204  0.24999778  0.43822386  1  0.099523  -0.000195  0.96436  0.0  0.110923  -5.2e-05  1.021376  0.0  0.112714  -8.4e-05  1.021037  0.0  0.111745  0.109554  -4e-06  1.02183  0.0
H  H9  1  0.25066368  0.75000386  0.06177638  1  0.099506  -0.000192  0.964396  0.0  0.110912  -5.2e-05  1.021403  0.0  0.112705  -8.5e-05  1.021063  0.0  0.111735  0.109542  -3e-06  1.021857  0.0
H  H10  1  0.24934226  0.74999545  0.56177477  1  0.099555  -0.000192  0.964322  0.0  0.110948  -5.2e-05  1.021335  0.0  0.112742  -8.4e-05  1.020993  0.0  0.111759  0.109579  -4e-06  1.021791  0.0
H  H11  1  0.74933582  0.25000131  0.93822441  1  0.099524  -0.000196  0.96424  0.0  0.110917  -5.2e-05  1.021269  0.0  0.112709  -8.5e-05  1.020928  0.0  0.111735  0.109549  -3e-06  1.021723  0.0
H  H12  1  0.53860587  0.24999293  0.53310906  1  0.114185  0.000133  0.973951  0.0  0.110858  0.000213  1.052306  0.0  0.11568  0.0001  1.048688  0.0  0.110654  0.107447  0.000327  1.054871  0.0
H  H13  1  0.03860685  0.74999228  0.96689144  1  0.114188  0.000133  0.973913  0.0  0.110909  0.000213  1.052238  0.0  0.115702  0.0001  1.048639  0.0  0.110685  0.107493  0.000327  1.054808  0.0
H  H14  1  0.46139683  0.75000031  0.46688956  1  0.114165  0.000129  0.97394  0.0  0.110921  0.000213  1.052221  0.0  0.115717  0.0001  1.048622  0.0  0.110693  0.107509  0.000327  1.054785  0.0
H  H15  1  0.96139425  0.24999432  0.03310935  1  0.114182  0.000134  0.973906  0.0  0.110883  0.000213  1.052245  0.0  0.11569  0.0001  1.048638  0.0  0.110675  0.10747  0.000327  1.054811  0.0
H  H16  1  0.75652653  0.25000222  0.62482930  1  0.101794  -0.000349  0.951473  0.0  0.107823  0.000209  1.017954  0.0  0.109858  -1.1e-05  1.016652  0.0  0.127931  0.106361  0.00041  1.018986  0.0
H  H17  1  0.25652286  0.74999051  0.87517074  1  0.101762  -0.000352  0.951449  0.0  0.10778  0.000208  1.017966  0.0  0.109814  -1.1e-05  1.016663  0.0  0.127915  0.106317  0.00041  1.018998  0.0
H  H18  1  0.24347937  0.75000825  0.37516932  1  0.101791  -0.000346  0.951456  0.0  0.107846  0.000208  1.017911  0.0  0.109879  -1.1e-05  1.016609  0.0  0.12791  0.106384  0.00041  1.018944  0.0
H  H19  1  0.74347504  0.25000140  0.12482962  1  0.101789  -0.000348  0.951502  0.0  0.107824  0.000208  1.017962  0.0  0.109858  -1.1e-05  1.016662  0.0  0.127921  0.106363  0.00041  1.018995  0.0
C  C20  1  0.05189229  0.24999707  0.48375681  1  0.07018  -0.000511  3.708281  0.0  0.045519  6.2e-05  3.973023  0.001  0.046712  -0.000767  3.990947  0.0  0.047613  0.044796  0.000763  3.961034  0.001
C  C21  1  0.55189203  0.74999822  0.01624259  1  0.070165  -0.000503  3.708234  0.0  0.045506  6.1e-05  3.972989  0.001  0.046694  -0.000766  3.990913  0.0  0.047608  0.044784  0.000763  3.961  0.001
C  C22  1  0.94811361  0.74999749  0.51624139  1  0.070014  -0.000479  3.708234  0.0  0.045319  6.2e-05  3.973054  0.001  0.046504  -0.000764  3.990977  0.0  0.047555  0.044597  0.000763  3.961063  0.001
C  C23  1  0.44810907  0.25000032  0.98375777  1  0.07009  -0.000511  3.708419  0.0  0.045418  6.2e-05  3.97318  0.001  0.046607  -0.000768  3.991105  0.0  0.047602  0.044697  0.000763  3.961185  0.001
C  C24  1  0.82832246  0.25000053  0.48024991  1  -0.045179  0.00281  3.687038  0.002  -0.062696  0.004542  3.929046  0.004  -0.06337  0.004073  3.949096  0.003  -0.058412  -0.062352  0.005323  3.915745  0.004
C  C25  1  0.32832097  0.75000048  0.01975032  1  -0.045271  0.002804  3.687034  0.002  -0.062791  0.004542  3.92906  0.004  -0.063464  0.004073  3.949105  0.003  -0.058454  -0.062447  0.005324  3.915758  0.004
C  C26  1  0.17168184  0.74999801  0.51974829  1  -0.045239  0.002761  3.686914  0.002  -0.062719  0.004542  3.928914  0.004  -0.063393  0.004071  3.948963  0.003  -0.058437  -0.062375  0.005323  3.915611  0.004
C  C27  1  0.67167534  0.25000203  0.98025090  1  -0.045308  0.002814  3.68698  0.002  -0.062803  0.004542  3.92899  0.004  -0.063478  0.004072  3.94904  0.003  -0.058474  -0.062458  0.005324  3.915686  0.004
C  C28  1  0.71332469  0.24999884  0.53138048  1  -0.05461  -0.002351  3.667066  -0.001  -0.063858  -0.001462  3.909539  0.0  -0.067868  -0.002319  3.928882  -0.001  -0.057356  -0.061193  -0.000704  3.896699  0.0
C  C29  1  0.21331927  0.75000087  0.96862043  1  -0.054584  -0.002354  3.666838  -0.001  -0.06389  -0.001461  3.909316  0.0  -0.067871  -0.002318  3.92868  -0.001  -0.057409  -0.061225  -0.000704  3.896487  0.0
C  C30  1  0.28668601  0.74999705  0.46861858  1  -0.054611  -0.002267  3.666773  -0.001  -0.063973  -0.001462  3.909266  0.0  -0.067961  -0.002316  3.928629  -0.001  -0.057436  -0.06131  -0.000704  3.896433  0.0
C  C31  1  0.78668023  0.24999634  0.03138122  1  -0.054534  -0.002352  3.66665  -0.001  -0.063831  -0.001463  3.909142  0.0  -0.067827  -0.002314  3.928495  -0.001  -0.057376  -0.061169  -0.000704  3.896311  0.0
C  C32  1  0.83257332  0.25000283  0.58250196  1  0.099789  0.004139  3.664601  0.004  0.06976  0.006986  3.90905  0.006  0.073107  0.005985  3.92966  0.005  0.065206  0.067421  0.008145  3.894978  0.007
C  C33  1  0.33257118  0.74999327  0.91749721  1  0.099912  0.004157  3.664351  0.004  0.069889  0.006987  3.908811  0.006  0.073236  0.005985  3.929416  0.005  0.065296  0.067548  0.008146  3.894738  0.007
C  C34  1  0.16743258  0.75000632  0.41749494  1  0.0998  0.004098  3.664345  0.004  0.069779  0.00699  3.908769  0.006  0.073126  0.005984  3.929378  0.005  0.065225  0.067437  0.008146  3.894696  0.007
C  C35  1  0.66742672  0.25000395  0.08250401  1  0.099827  0.004137  3.664353  0.004  0.069811  0.00699  3.908796  0.006  0.073158  0.005982  3.929403  0.005  0.065272  0.067468  0.008146  3.894728  0.007
C  C36  1  0.47438168  0.40172480  0.78067117  1  0.534277  0.019543  3.923829  0.02  0.491703  0.026865  4.205632  0.026  0.517244  0.022488  4.218144  0.022  0.325812  0.4736  0.031458  4.196752  0.029
C  C37  1  0.97437802  0.59826749  0.71932842  1  0.534415  0.019517  3.923845  0.02  0.491849  0.026866  4.205638  0.026  0.517391  0.022473  4.218148  0.022  0.325924  0.473748  0.031456  4.196763  0.029
C  C38  1  0.52562408  0.90173481  0.21932907  1  0.534342  0.019476  3.924056  0.02  0.491773  0.026864  4.205851  0.026  0.517316  0.022486  4.218364  0.022  0.32588  0.473672  0.031455  4.196972  0.029
C  C39  1  0.02562481  0.09826334  0.28067163  1  0.534377  0.019528  3.923976  0.02  0.491808  0.026862  4.20576  0.026  0.517352  0.02248  4.218269  0.022  0.325921  0.473706  0.031454  4.196886  0.029
C  C40  1  0.52561142  0.59827241  0.21932919  1  0.534246  0.019512  3.924188  0.02  0.491678  0.026865  4.205979  0.026  0.517221  0.02249  4.218495  0.022  0.325828  0.473575  0.031457  4.197097  0.029
C  C41  1  0.02562787  0.40172574  0.28067021  1  0.534346  0.019537  3.923932  0.02  0.491775  0.026868  4.205724  0.026  0.51732  0.022486  4.218237  0.022  0.325869  0.473671  0.03146  4.196845  0.029
C  C42  1  0.47437702  0.09826240  0.78067215  1  0.534266  0.019546  3.924202  0.02  0.491692  0.026866  4.205994  0.026  0.517236  0.022489  4.218505  0.022  0.325905  0.473588  0.03146  4.197113  0.029
C  C43  1  0.97437629  0.90172724  0.71932960  1  0.534454  0.019511  3.923733  0.02  0.491893  0.026868  4.205521  0.026  0.517437  0.022473  4.218027  0.022  0.325966  0.47379  0.031457  4.196643  0.029
C  C44  1  0.50745582  0.59858153  0.63702954  1  0.515542  0.020493  3.957826  0.021  0.476952  0.0259  4.239373  0.026  0.5027  0.022709  4.251401  0.023  0.321825  0.458984  0.029227  4.230491  0.028
C  C45  1  0.00745455  0.40141985  0.86297313  1  0.515513  0.020498  3.957707  0.021  0.47694  0.025908  4.239261  0.026  0.502688  0.022702  4.251292  0.023  0.321778  0.458972  0.029231  4.230378  0.028
C  C46  1  0.49254541  0.09859243  0.36297051  1  0.515444  0.020494  3.95767  0.021  0.476894  0.025902  4.239221  0.026  0.502633  0.0227  4.251251  0.023  0.321751  0.458927  0.029227  4.230338  0.028
C  C47  1  0.99254163  0.90141786  0.13702754  1  0.515513  0.020524  3.957816  0.021  0.476945  0.025904  4.239376  0.026  0.502688  0.022694  4.251405  0.023  0.321784  0.458977  0.029225  4.230495  0.028
C  C48  1  0.49254688  0.40142364  0.36297341  1  0.515522  0.020528  3.957615  0.021  0.476979  0.025905  4.239162  0.026  0.502719  0.022704  4.251195  0.023  0.32183  0.459011  0.02923  4.230277  0.028
C  C49  1  0.99253696  0.59858400  0.13702680  1  0.515529  0.020554  3.957595  0.021  0.476964  0.025906  4.239146  0.026  0.502707  0.022696  4.251176  0.023  0.321828  0.458995  0.029228  4.230265  0.028
C  C50  1  0.50745249  0.90141671  0.63702856  1  0.515524  0.020492  3.957752  0.021  0.476926  0.025897  4.23932  0.026  0.502672  0.022708  4.25135  0.023  0.321796  0.45896  0.029225  4.230438  0.028
C  C51  1  0.00745468  0.09858731  0.86297325  1  0.515501  0.020494  3.957719  0.021  0.476925  0.025904  4.239279  0.026  0.502673  0.022703  4.251308  0.023  0.321768  0.458957  0.029229  4.230396  0.028
N  N52  1  0.04659533  0.25000203  0.58296365  1  -0.205798  0.031003  3.244148  0.019  -0.140928  0.035798  3.528387  0.02  -0.156309  0.030845  3.545116  0.016  -0.192303  -0.129198  0.040615  3.516551  0.024
N  N53  1  0.54659441  0.74999240  0.91703512  1  -0.205896  0.030988  3.244076  0.019  -0.141036  0.035799  3.528334  0.02  -0.156418  0.030846  3.545066  0.016  -0.192376  -0.129303  0.040617  3.516496  0.024
N  N54  1  0.95340737  0.75000314  0.41703455  1  -0.205944  0.031031  3.244206  0.019  -0.141088  0.035798  3.528471  0.02  -0.156472  0.030848  3.545204  0.016  -0.192349  -0.129355  0.040618  3.516632  0.024
N  N55  1  0.45340349  0.25000349  0.08296481  1  -0.205912  0.031005  3.24416  0.019  -0.14104  0.035798  3.528404  0.02  -0.156423  0.03085  3.545135  0.016  -0.192354  -0.129309  0.040619  3.516569  0.024
N  N56  1  0.15888868  0.25000242  0.53377821  1  -0.158347  0.002904  3.019958  0.004  -0.135511  0.005388  3.290438  0.006  -0.140141  0.004364  3.307587  0.005  -0.178771  -0.132295  0.006786  3.278522  0.007
N  N57  1  0.65888448  0.74999507  0.96622098  1  -0.158289  0.002905  3.019873  0.004  -0.135445  0.005389  3.290346  0.006  -0.140077  0.004363  3.307494  0.005  -0.17873  -0.132227  0.006786  3.278429  0.007
N  N58  1  0.84111882  0.75000407  0.46621955  1  -0.158078  0.002883  3.019884  0.004  -0.135229  0.00539  3.290349  0.006  -0.139861  0.004362  3.307502  0.005  -0.178656  -0.132014  0.006786  3.27843  0.007
N  N59  1  0.34111182  0.25000479  0.03377981  1  -0.158193  0.002901  3.019898  0.004  -0.13535  0.005391  3.290354  0.006  -0.139981  0.004364  3.307504  0.005  -0.178725  -0.132135  0.006787  3.278434  0.007
N  N60  1  0.41991038  0.24999692  0.75845460  1  -0.493228  0.024425  3.371786  0.014  -0.418941  0.033942  3.639599  0.019  -0.446591  0.029897  3.643115  0.017  -0.296353  -0.398595  0.038039  3.63674  0.022
N  N61  1  0.91990975  0.75000112  0.74154629  1  -0.493348  0.024406  3.371619  0.014  -0.419086  0.033944  3.639459  0.019  -0.446734  0.029889  3.642972  0.017  -0.296377  -0.398743  0.038041  3.636604  0.022
N  N62  1  0.58008752  0.75000029  0.24154532  1  -0.493268  0.024426  3.371782  0.014  -0.418995  0.033941  3.639602  0.019  -0.446648  0.029901  3.643122  0.017  -0.296364  -0.398645  0.038039  3.636745  0.022
N  N63  1  0.08009295  0.24999875  0.25845450  1  -0.493249  0.024426  3.371792  0.014  -0.418972  0.033937  3.639605  0.019  -0.446629  0.029898  3.643129  0.017  -0.296326  -0.398623  0.03804  3.636747  0.022
N  N64  1  0.51337820  0.54596721  0.79712150  1  -0.588278  0.023313  2.81657  0.006  -0.544845  0.034939  3.112527  0.012  -0.567702  0.028946  3.114502  0.007  -0.363848  -0.528193  0.040958  3.111576  0.016
N  N65  1  0.01337339  0.45403014  0.70287900  1  -0.588269  0.023351  2.816854  0.006  -0.544833  0.034933  3.112812  0.012  -0.567687  0.028962  3.114784  0.007  -0.363875  -0.528183  0.040956  3.111862  0.016
N  N66  1  0.48663003  0.04597240  0.20287800  1  -0.588267  0.02338  2.816947  0.006  -0.54483  0.034934  3.112899  0.012  -0.567684  0.028942  3.11487  0.007  -0.363847  -0.528175  0.040955  3.111948  0.016
N  N67  1  0.98663338  0.95402998  0.29712092  1  -0.588242  0.023325  2.816979  0.006  -0.544803  0.034941  3.112935  0.012  -0.567656  0.028951  3.114905  0.007  -0.363855  -0.528152  0.040958  3.111987  0.016
N  N68  1  0.48661331  0.45403266  0.20287929  1  -0.588189  0.023345  2.816851  0.006  -0.544755  0.034938  3.11282  0.012  -0.567609  0.028942  3.114791  0.007  -0.363801  -0.528099  0.040958  3.111866  0.016
N  N69  1  0.98662931  0.54597105  0.29712179  1  -0.588399  0.023324  2.816539  0.006  -0.544975  0.03494  3.112523  0.012  -0.567833  0.028948  3.114497  0.007  -0.363938  -0.528319  0.040959  3.111572  0.016
N  N70  1  0.51336467  0.95402216  0.79712106  1  -0.588199  0.023312  2.817044  0.006  -0.544756  0.034937  3.11298  0.012  -0.567608  0.028947  3.114953  0.007  -0.363856  -0.528105  0.040956  3.112027  0.016
N  N71  1  0.01337252  0.04596856  0.70287814  1  -0.588409  0.023357  2.816537  0.006  -0.544993  0.034934  3.112517  0.012  -0.567848  0.028966  3.114485  0.007  -0.363962  -0.528342  0.040959  3.111567  0.016
N  N72  1  0.43653244  0.45463119  0.64193847  1  -0.596778  0.020086  2.876141  0.003  -0.552975  0.028664  3.179955  0.005  -0.576737  0.023513  3.181969  0.002  -0.367376  -0.53538  0.033779  3.178521  0.009
N  N73  1  0.93653716  0.54537202  0.85806372  1  -0.596689  0.020094  2.876073  0.003  -0.552894  0.028647  3.179903  0.005  -0.576642  0.02353  3.181888  0.002  -0.367317  -0.5353  0.033777  3.178468  0.009
N  N74  1  0.56346792  0.95464226  0.35806145  1  -0.596631  0.020096  2.876096  0.003  -0.552842  0.028649  3.17992  0.005  -0.576588  0.023525  3.181903  0.002  -0.367228  -0.535254  0.033775  3.1785  0.009
N  N75  1  0.06346308  0.04536620  0.14193881  1  -0.596706  0.02008  2.876187  0.003  -0.5529  0.028645  3.179994  0.005  -0.57666  0.023535  3.182003  0.002  -0.36731  -0.535307  0.033777  3.17856  0.009
N  N76  1  0.56346386  0.54537796  0.35806146  1  -0.596784  0.020062  2.875958  0.003  -0.553002  0.028652  3.179803  0.005  -0.576749  0.023525  3.181783  0.002  -0.367405  -0.535414  0.033778  3.178386  0.009
N  N77  1  0.06345755  0.45463315  0.14193621  1  -0.596717  0.020043  2.876038  0.003  -0.552919  0.028645  3.17985  0.005  -0.576673  0.023534  3.181848  0.002  -0.367351  -0.535325  0.033777  3.178415  0.009
N  N78  1  0.43654117  0.04536689  0.64193848  1  -0.596694  0.020082  2.876172  0.003  -0.55288  0.028664  3.179974  0.005  -0.57664  0.023514  3.181993  0.002  -0.367312  -0.535288  0.033778  3.178539  0.009
N  N79  1  0.93653482  0.95463367  0.85806241  1  -0.596712  0.020098  2.876013  0.003  -0.552904  0.028649  3.179813  0.005  -0.576669  0.023527  3.18183  0.002  -0.367309  -0.535308  0.033776  3.178376  0.009
N  N80  1  0.60014084  0.74999601  0.62884026  1  -0.465407  0.008543  3.289267  0.008  -0.406035  0.013833  3.544014  0.012  -0.430546  0.011033  3.548025  0.009  -0.302258  -0.38844  0.01692  3.540598  0.014
N  N81  1  0.10014129  0.25000063  0.87116413  1  -0.465386  0.008518  3.289353  0.008  -0.406049  0.013852  3.544131  0.012  -0.430555  0.011022  3.54813  0.009  -0.302213  -0.388452  0.01692  3.540713  0.014
N  N82  1  0.39985866  0.25001048  0.37116053  1  -0.465313  0.008517  3.289189  0.008  -0.406026  0.013849  3.544  0.012  -0.430521  0.011025  3.548002  0.009  -0.302246  -0.388429  0.01692  3.540583  0.014
N  N83  1  0.89985182  0.75000188  0.12883710  1  -0.465391  0.008489  3.289226  0.008  -0.406072  0.013855  3.544024  0.012  -0.430574  0.01102  3.548027  0.009  -0.302242  -0.388475  0.01692  3.54061  0.014
