# generated using pymatgen
data_Zn4H6C24S6Br2O19
_symmetry_space_group_name_H-M   'P 1'
_cell_length_a   19.60120726
_cell_length_b   19.64632679
_cell_length_c   33.37666155
_cell_angle_alpha   78.98105769
_cell_angle_beta   79.16909824
_cell_angle_gamma   63.99157570
_symmetry_Int_Tables_number   1
_chemical_formula_structural   Zn4H6C24S6Br2O19
_chemical_formula_sum   'Zn16 H24 C96 S24 Br8 O76'
_cell_volume   11259.25747955
_cell_formula_units_Z   4
loop_
 _symmetry_equiv_pos_site_id
 _symmetry_equiv_pos_as_xyz
  1  'x, y, z'
loop_
 _atom_site_type_symbol
 _atom_site_label
 _atom_site_symmetry_multiplicity
 _atom_site_fract_x
 _atom_site_fract_y
 _atom_site_fract_z
 _atom_site_occupancy
 _atom_site_pbe_bader_charge
 _atom_site_pbe_bader_spin_density
 _atom_site_pbe_cm5_charge
 _atom_site_pbe_ddec_charge
 _atom_site_pbe_ddec_spin_density
 _atom_site_pbe_ddec_sum_bond_order
 _atom_site_pbe_magmom
Zn  Zn0  1  0.05670865  0.40163057  0.47673887  1  1.313242  0  0.671431  0.969495  0  2.336309  0
Zn  Zn1  1  0.98434200  0.48457573  0.56039857  1  1.320856  0  0.685423  0.97909  0  2.330462  0
Zn  Zn2  1  0.05898091  0.56106253  0.48146473  1  1.328249  0  0.682984  0.980523  0  2.346568  0
Zn  Zn3  1  0.89816073  0.55262059  0.48134601  1  1.325388  0  0.683128  0.980516  0  2.346563  0
Zn  Zn4  1  0.69789986  0.34912976  0.27130161  1  1.316712  0  0.672891  0.969646  0  2.343394  0
Zn  Zn5  1  0.69062717  0.18972830  0.26580607  1  1.321524  0  0.672998  0.96509  0  2.366305  0
Zn  Zn6  1  0.77068373  0.26620364  0.18973357  1  1.326378  0  0.684091  0.983873  0  2.345855  0
Zn  Zn7  1  0.84885297  0.19169498  0.27360725  1  1.323148  0  0.682185  0.975888  0  2.354489  0
Zn  Zn8  1  0.26485027  0.76638325  0.68888078  1  1.301668  0  0.672397  0.963418  0  2.35689  0
Zn  Zn9  1  0.34804735  0.69826023  0.77135239  1  1.325663  0  0.683948  0.977114  0  2.347989  0
Zn  Zn10  1  0.19099359  0.84879656  0.77015987  1  1.317109  0  0.67287  0.969708  0  2.368037  0
Zn  Zn11  1  0.19274868  0.68479140  0.76684536  1  1.325692  0  0.683357  0.981054  0  2.341621  0
Zn  Zn12  1  0.56254143  0.05896656  0.98399572  1  1.313278  0  0.6748  0.969362  0  2.350115  0
Zn  Zn13  1  0.40147279  0.05436548  0.97696511  1  1.31731  0  0.673012  0.965428  0  2.350284  0
Zn  Zn14  1  0.55622348  0.90092762  0.97790875  1  1.319011  0  0.675836  0.972276  0  2.377177  0
Zn  Zn15  1  0.48227293  0.98215390  0.05936696  1  1.312389  0  0.673006  0.965253  0  2.386387  0
H  H16  1  0.74934266  0.44789747  0.35026292  1  0.169771  0  0.112587  0.13086  0  0.996261  0
H  H17  1  0.00141697  0.30106541  0.40082674  1  0.138137  0  0.111525  0.130203  0  0.997953  0
H  H18  1  0.19416705  0.70683915  0.60159384  1  0.123878  0  0.11109  0.129687  0  1.000637  0
H  H19  1  0.04732728  0.55047460  0.64645546  1  0.117893  0  0.114246  0.138549  0  0.993884  0
H  H20  1  0.46375756  0.24141809  0.33947135  1  0.122968  0  0.123375  0.150063  0  0.967308  0
H  H21  1  0.48130560  0.70091655  0.60047727  1  0.129907  0  0.120816  0.146388  0  0.970907  0
H  H22  1  0.20607205  0.98047247  0.60071280  1  0.134726  0  0.124542  0.151658  0  0.965705  0
H  H23  1  0.95097900  0.96144826  0.34331303  1  0.132774  0  0.125744  0.154798  0  0.962289  0
H  H24  1  0.65842276  0.13712894  0.04992401  1  0.131329  0  0.113003  0.132609  0  0.997446  0
H  H25  1  0.59598486  0.10935898  0.20058860  1  0.110437  0  0.110836  0.130378  0  0.999487  0
H  H26  1  0.54774897  0.76980246  0.14797440  1  0.119716  0  0.1228  0.149296  0  0.968459  0
H  H27  1  0.15862431  0.14506573  0.04100820  1  0.129226  0  0.123366  0.149449  0  0.967608  0
H  H28  1  0.30189941  0.00166089  0.90019303  1  0.1488  0  0.110271  0.130476  0  1.001008  0
H  H29  1  0.43981781  0.74855418  0.85149602  1  0.147063  0  0.117289  0.141669  0  0.986981  0
H  H30  1  0.30317729  0.28083325  0.90203939  1  0.120054  0  0.121466  0.147198  0  0.969796  0
H  H31  1  0.78801408  0.00937793  0.90554860  1  0.112243  0  0.123499  0.149632  0  0.966348  0
H  H32  1  0.24058997  0.62445368  0.36350328  1  0.641287  0  0.355119  0.402637  0  0.835247  0
H  H33  1  0.86639087  0.42881854  0.66014792  1  0.671529  0  0.320895  0.400654  0  0.916431  0
H  H34  1  0.09897396  0.31968815  0.68743164  1  0.616985  0  0.363241  0.412036  0  0.82369  0
H  H35  1  0.75783305  0.73468713  0.35748378  1  0.637426  0  0.354055  0.40347  0  0.83467  0
H  H36  1  0.82976077  0.44679426  0.06748681  1  0.647947  0  0.355426  0.403266  0  0.836597  0
H  H37  1  0.13269721  0.15711543  0.24992576  1  0.637218  0  0.354221  0.403708  0  0.834466  0
H  H38  1  0.56505725  0.43635779  0.80592986  1  0.624397  0  0.358204  0.407084  0  0.830766  0
H  H39  1  0.91913798  0.69747063  0.79480437  1  0.643974  0  0.35794  0.408964  0  0.827138  0
C  C40  1  0.06862230  0.31734126  0.55925059  1  1.635201  0  0.220902  0.610208  0  4.217633  0
C  C41  1  0.06649502  0.57453363  0.56649489  1  1.574387  0  0.231971  0.615387  0  4.146772  0
C  C42  1  0.18289327  0.44080663  0.43609218  1  1.610952  0  0.220228  0.607783  0  4.217746  0
C  C43  1  0.93325424  0.68084155  0.43850557  1  1.615862  0  0.221012  0.609084  0  4.214958  0
C  C44  1  0.92910251  0.42834711  0.43357019  1  1.562036  0  0.229959  0.619729  0  4.14789  0
C  C45  1  0.81881307  0.55769335  0.56510410  1  1.59791  0  0.221131  0.610935  0  4.204907  0
C  C46  1  0.56872982  0.31083808  0.31114735  1  1.55815  0  0.22046  0.615076  0  4.209994  0
C  C47  1  0.68331600  0.18223917  0.17967706  1  1.58103  0  0.230826  0.617231  0  4.147279  0
C  C48  1  0.69486500  0.43295257  0.18866106  1  1.628196  0  0.220402  0.610141  0  4.216161  0
C  C49  1  0.93652960  0.18500912  0.19172354  1  1.596307  0  0.221288  0.609924  0  4.213555  0
C  C50  1  0.81890668  0.31726853  0.32051004  1  1.583523  0  0.22949  0.617649  0  4.149677  0
C  C51  1  0.81038035  0.06404766  0.31121081  1  1.563091  0  0.2206  0.611669  0  4.215036  0
C  C52  1  0.43171645  0.69612571  0.68752994  1  1.55085  0  0.219185  0.613695  0  4.209619  0
C  C53  1  0.31233288  0.82364207  0.81889290  1  1.597606  0  0.230434  0.615044  0  4.152905  0
C  C54  1  0.18362170  0.93425951  0.68721259  1  1.581349  0  0.220662  0.611921  0  4.216899  0
C  C55  1  0.06561021  0.80669301  0.80926009  1  1.611518  0  0.220646  0.608694  0  4.219609  0
C  C56  1  0.18271870  0.67592820  0.68127704  1  1.579402  0  0.230706  0.619374  0  4.148055  0
C  C57  1  0.31407514  0.56769371  0.81242858  1  1.610572  0  0.22226  0.607541  0  4.217152  0
C  C58  1  0.43947283  0.18435074  0.93985527  1  1.597723  0  0.219261  0.615314  0  4.21002  0
C  C59  1  0.43279902  0.92961129  0.92959151  1  1.586202  0  0.22947  0.618417  0  4.145939  0
C  C60  1  0.68708103  0.93701905  0.94059839  1  1.576579  0  0.21979  0.612359  0  4.214815  0
C  C61  1  0.55846451  0.81573040  0.06101132  1  1.558133  0  0.22055  0.61346  0  4.213637  0
C  C62  1  0.56825640  0.06732915  0.07056182  1  1.577775  0  0.229993  0.616571  0  4.149905  0
C  C63  1  0.31439339  0.05900613  0.05936904  1  1.578736  0  0.219543  0.610436  0  4.215386  0
C  C64  1  0.89852417  0.40351355  0.40381073  1  0.045377  0  -0.01258  -0.058544  0  3.920339  0
C  C65  1  0.85085340  0.34389599  0.34872089  1  0.066369  0  -0.010953  -0.055878  0  3.919637  0
C  C66  1  0.82690673  0.44574488  0.38891095  1  -0.091401  0  -0.007883  0.092953  0  3.934985  0
C  C67  1  0.92322531  0.30248602  0.36286499  1  -0.124511  0  -0.00893  0.092903  0  3.934954  0
C  C68  1  0.80448040  0.41557105  0.36192457  1  -0.023457  0  -0.083975  -0.135348  0  3.952173  0
C  C69  1  0.94559278  0.33260078  0.38987378  1  0.019254  0  -0.08467  -0.136586  0  3.956947  0
C  C70  1  0.09515668  0.60470813  0.59455553  1  -0.000789  0  -0.009933  -0.053275  0  3.914335  0
C  C71  1  0.14984006  0.64946829  0.65343277  1  -0.015337  0  -0.012465  -0.058698  0  3.918171  0
C  C72  1  0.13608840  0.65042680  0.58182874  1  -0.099832  0  -0.006821  0.096041  0  3.934161  0
C  C73  1  0.10730956  0.60520935  0.66616794  1  -0.063615  0  -0.008215  0.093119  0  3.932261  0
C  C74  1  0.16247701  0.67164716  0.61116349  1  0.053902  0  -0.084996  -0.136603  0  3.955518  0
C  C75  1  0.08072026  0.58405893  0.63686285  1  0.075452  0  -0.082514  -0.136362  0  3.94424  0
C  C76  1  0.30650799  0.45595932  0.40069533  1  -0.133625  0  -0.023472  -0.150494  0  3.978391  0
C  C77  1  0.44784011  0.29761079  0.34801750  1  0.069356  0  -0.087758  -0.134587  0  3.965646  0
C  C78  1  0.25959822  0.41713702  0.41253004  1  -0.092422  0  -0.012549  -0.113754  0  3.931909  0
C  C79  1  0.49387435  0.33659397  0.33641367  1  -0.172931  0  -0.023212  -0.121976  0  3.980241  0
C  C80  1  0.37995106  0.34108125  0.37173044  1  -0.186702  0  -0.019881  -0.005547  0  4.064592  0
C  C81  1  0.37571100  0.41239799  0.37744636  1  -0.115332  0  -0.017489  -0.030762  0  4.064333  0
C  C82  1  0.72689121  0.58281377  0.63345735  1  -0.036549  0  -0.019723  -0.137778  0  3.953766  0
C  C83  1  0.52483779  0.67636165  0.62139467  1  0.080932  0  -0.090265  -0.136656  0  3.972326  0
C  C84  1  0.74473771  0.58672404  0.59086076  1  -0.14512  0  -0.012765  -0.120046  0  3.936931  0
C  C85  1  0.50783915  0.67140054  0.66372253  1  -0.191363  0  -0.024943  -0.127995  0  3.990075  0
C  C86  1  0.60477495  0.64501695  0.61043056  1  -0.164311  0  -0.018573  -0.006498  0  4.065945  0
C  C87  1  0.64668145  0.61650668  0.64470815  1  -0.171556  0  -0.015632  -0.026588  0  4.051646  0
C  C88  1  0.07562114  0.22797988  0.62816893  1  -0.058  0  -0.024356  -0.159223  0  3.993761  0
C  C89  1  0.17463004  0.02510203  0.62056521  1  0.098433  0  -0.087186  -0.135321  0  3.966597  0
C  C90  1  0.08954363  0.24339279  0.58560449  1  -0.134821  0  -0.010908  -0.112405  0  3.938911  0
C  C91  1  0.15999225  0.00996511  0.66264808  1  -0.167452  0  -0.020128  -0.114434  0  3.971463  0
C  C92  1  0.14333329  0.10456612  0.60830542  1  -0.205423  0  -0.018708  -0.005386  0  4.061157  0
C  C93  1  0.10598740  0.14828676  0.64141315  1  -0.198541  0  -0.0173  -0.031929  0  4.06301  0
C  C94  1  0.83435203  0.80229031  0.40013284  1  -0.060308  0  -0.024617  -0.152623  0  3.98322  0
C  C95  1  0.90361632  0.94465794  0.35026833  1  0.015737  0  -0.08526  -0.130614  0  3.956215  0
C  C96  1  0.90513909  0.75692299  0.41430063  1  -0.157291  0  -0.010877  -0.112073  0  3.931375  0
C  C97  1  0.83317405  0.98927531  0.33643461  1  -0.111477  0  -0.021977  -0.118606  0  3.981957  0
C  C98  1  0.90355272  0.87678104  0.37365967  1  -0.203245  0  -0.019524  -0.008076  0  4.067709  0
C  C99  1  0.83311729  0.87121940  0.37690633  1  -0.153263  0  -0.017947  -0.030244  0  4.067836  0
C  C100  1  0.65663356  0.15288876  0.15014425  1  -0.022942  0  -0.011261  -0.056971  0  3.915226  0
C  C101  1  0.59650311  0.09494977  0.10025462  1  0.002111  0  -0.012159  -0.059344  0  3.913623  0
C  C102  1  0.67485618  0.16019707  0.10702889  1  -0.079447  0  -0.005651  0.096382  0  3.931081  0
C  C103  1  0.57898473  0.08704156  0.14343004  1  -0.055771  0  -0.00908  0.097036  0  3.924056  0
C  C104  1  0.64471953  0.13150006  0.08318978  1  0.063873  0  -0.082698  -0.133404  0  3.947115  0
C  C105  1  0.60911571  0.11560599  0.16729744  1  0.039698  0  -0.084764  -0.135803  0  3.954565  0
C  C106  1  0.67541836  0.52258375  0.11949191  1  -0.104736  0  -0.023013  -0.150421  0  3.9783  0
C  C107  1  0.57576685  0.72515800  0.12792853  1  0.069765  0  -0.088169  -0.135237  0  3.966369  0
C  C108  1  0.66756854  0.50667554  0.16223557  1  -0.120549  0  -0.013074  -0.115164  0  3.937576  0
C  C109  1  0.58390838  0.74020616  0.08553343  1  -0.236082  0  -0.022861  -0.121509  0  3.981926  0
C  C110  1  0.60857322  0.64571189  0.14013293  1  -0.114949  0  -0.019677  -0.00454  0  4.065155  0
C  C111  1  0.64136516  0.60224114  0.10668867  1  -0.148333  0  -0.017304  -0.031931  0  4.06468  0
C  C112  1  0.08520649  0.11468938  0.17941967  1  -0.113165  0  -0.024718  -0.152521  0  3.981425  0
C  C113  1  0.16829426  0.12462539  0.07299384  1  0.026115  0  -0.088513  -0.135798  0  3.967869  0
C  C114  1  0.01230125  0.15700719  0.16726276  1  -0.136071  0  -0.011567  -0.113046  0  3.933748  0
C  C115  1  0.24030727  0.08275556  0.08533917  1  -0.145285  0  -0.021972  -0.117146  0  3.979052  0
C  C116  1  0.11196351  0.13584031  0.10740416  1  -0.237774  0  -0.019984  -0.006871  0  4.064123  0
C  C117  1  0.14257028  0.10228334  0.14515898  1  -0.117876  0  -0.018892  -0.033553  0  4.06805  0
C  C118  1  0.33908575  0.85319729  0.84831331  1  0.000939  0  -0.010591  -0.056186  0  3.914279  0
C  C119  1  0.40403390  0.89830379  0.90209855  1  -0.010083  0  -0.012623  -0.059314  0  3.917972  0
C  C120  1  0.29943872  0.92514499  0.86275172  1  -0.037722  0  -0.007855  0.097808  0  3.926763  0
C  C121  1  0.44297722  0.82558802  0.88843027  1  -0.032418  0  -0.005655  0.096893  0  3.92749  0
C  C122  1  0.33217070  0.94618282  0.88904186  1  -0.048096  0  -0.086391  -0.138771  0  3.958339  0
C  C123  1  0.41016590  0.80458367  0.86209861  1  0.037386  0  -0.079176  -0.128729  0  3.931316  0
C  C124  1  0.40858633  0.45263437  0.85643926  1  -0.140553  0  -0.023367  -0.151242  0  3.975077  0
C  C125  1  0.34729136  0.30156219  0.89880611  1  0.076134  0  -0.089008  -0.134235  0  3.970595  0
C  C126  1  0.34042685  0.49398759  0.83896496  1  -0.077172  0  -0.01028  -0.112353  0  3.930961  0
C  C127  1  0.41520628  0.26041526  0.91582981  1  -0.190594  0  -0.025143  -0.126213  0  3.983648  0
C  C128  1  0.34496062  0.37170130  0.87743676  1  -0.204518  0  -0.020225  -0.009416  0  4.067564  0
C  C129  1  0.41139136  0.38236072  0.87861150  1  -0.143023  0  -0.016853  -0.029232  0  4.060056  0
C  C130  1  0.94753557  0.78784315  0.85116650  1  -0.068353  0  -0.023373  -0.149124  0  3.975129  0
C  C131  1  0.80534261  0.95100221  0.89992958  1  0.074777  0  -0.087815  -0.132872  0  3.967302  0
C  C132  1  0.99184452  0.82854667  0.83561692  1  -0.126008  0  -0.011567  -0.113087  0  3.934574  0
C  C133  1  0.76169973  0.91034950  0.91529936  1  -0.171803  0  -0.023257  -0.123713  0  3.985876  0
C  C134  1  0.87307103  0.90593350  0.87673799  1  -0.191129  0  -0.019947  -0.006709  0  4.067676  0
C  C135  1  0.87932822  0.83203121  0.87487800  1  -0.159135  0  -0.017618  -0.032325  0  4.062645  0
S  S136  1  0.29994138  0.32814496  0.39556266  1  0.309402  0  0.112263  0.165181  0  2.74287  0
S  S137  1  0.45606542  0.42524228  0.35415856  1  0.341756  0  0.104862  0.171258  0  2.813947  0
S  S138  1  0.66433286  0.63243040  0.56489182  1  0.297589  0  0.114798  0.171633  0  2.740708  0
S  S139  1  0.58765384  0.62975584  0.69040560  1  0.343329  0  0.111151  0.18155  0  2.81708  0
S  S140  1  0.13898754  0.16147393  0.56193213  1  0.313789  0  0.121886  0.178481  0  2.743185  0
S  S141  1  0.10853587  0.09107268  0.68763272  1  0.336906  0  0.107394  0.170836  0  2.799832  0
S  S142  1  0.96928938  0.79839760  0.39972353  1  0.324566  0  0.116648  0.172715  0  2.749693  0
S  S143  1  0.76670067  0.95009969  0.35150293  1  0.337411  0  0.100846  0.164942  0  2.820011  0
S  S144  1  0.61861747  0.58826421  0.18648362  1  0.301809  0  0.112306  0.165286  0  2.744032  0
S  S145  1  0.63043269  0.65927529  0.06019737  1  0.338036  0  0.110281  0.178543  0  2.814795  0
S  S146  1  0.01378264  0.18075216  0.11449773  1  0.346017  0  0.117559  0.174097  0  2.751392  0
S  S147  1  0.24068379  0.05634187  0.13816666  1  0.382786  0  0.102571  0.168844  0  2.826743  0
S  S148  1  0.27995564  0.44812912  0.84987306  1  0.335147  0  0.122555  0.181916  0  2.742255  0
S  S149  1  0.47619511  0.30626068  0.90651351  1  0.339498  0  0.103726  0.170445  0  2.808908  0
S  S150  1  0.95095683  0.91956997  0.85000093  1  0.332012  0  0.114961  0.169803  0  2.751366  0
S  S151  1  0.80187975  0.81793974  0.90206239  1  0.345611  0  0.106281  0.174048  0  2.812764  0
S  S152  1  0.29117817  0.54543767  0.41388680  1  3.102086  0  0.541542  1.174254  0  5.997537  0
S  S153  1  0.79011874  0.54536216  0.67212261  1  3.134118  0  0.538216  1.184913  0  6.035933  0
S  S154  1  0.02090693  0.29454638  0.66340021  1  3.088684  0  0.558367  1.191264  0  5.969406  0
S  S155  1  0.75085442  0.78486432  0.41010235  1  3.096757  0  0.541844  1.178072  0  5.995544  0
S  S156  1  0.71592243  0.45693511  0.08253816  1  3.099251  0  0.54313  1.175711  0  5.989826  0
S  S157  1  0.10999445  0.07350580  0.22971909  1  3.092104  0  0.541076  1.178354  0  5.998547  0
S  S158  1  0.48295941  0.48131460  0.85633919  1  3.09354  0  0.544407  1.175971  0  6.000557  0
S  S159  1  0.97039926  0.69115401  0.84704324  1  3.080825  0  0.542281  1.178546  0  6.000727  0
Br  Br160  1  0.75781996  0.54525653  0.40131940  1  -0.010012  0  0.034342  -0.036781  0  1.444213  0
Br  Br161  1  0.99690768  0.20767755  0.34591955  1  -0.018693  0  0.028102  -0.04462  0  1.439518  0
Br  Br162  1  0.15700282  0.68876516  0.52648489  1  -0.010921  0  0.033094  -0.038126  0  1.414871  0
Br  Br163  1  0.08004671  0.57269008  0.72179744  1  -0.017302  0  0.029416  -0.043  0  1.424289  0
Br  Br164  1  0.74038129  0.20551398  0.07775617  1  -0.001196  0  0.040146  -0.029381  0  1.417774  0
Br  Br165  1  0.51611517  0.03871006  0.17344236  1  -0.028544  0  0.017461  -0.061422  0  1.377291  0
Br  Br166  1  0.20095314  0.99846880  0.84986977  1  -0.032899  0  0.017217  -0.061883  0  1.374987  0
Br  Br167  1  0.53841238  0.75012514  0.90396477  1  -0.009668  0  0.037963  -0.036251  0  1.375237  0
O  O168  1  0.00052777  0.49867883  0.49980880  1  -1.228912  0  -0.572002  -1.040428  0  2.520472  0
O  O169  1  0.07462449  0.31447257  0.52069799  1  -1.163623  0  -0.314896  -0.539573  0  2.311266  0
O  O170  1  0.01789540  0.54755201  0.58331579  1  -1.159389  0  -0.307819  -0.529729  0  2.334368  0
O  O171  1  0.14779985  0.51039241  0.44214759  1  -1.16128  0  -0.301503  -0.514575  0  2.372173  0
O  O172  1  0.04780897  0.37599510  0.57715273  1  -1.165868  0  -0.305731  -0.523862  0  2.372922  0
O  O173  1  0.15865819  0.38845288  0.44774257  1  -1.16745  0  -0.316874  -0.543726  0  2.317869  0
O  O174  1  0.09356371  0.57647611  0.52877624  1  -1.156236  0  -0.308347  -0.536333  0  2.412359  0
O  O175  1  0.99635768  0.66056403  0.45292767  1  -1.158585  0  -0.313799  -0.540655  0  2.33702  0
O  O176  1  0.88185210  0.48167766  0.45416058  1  -1.172435  0  -0.312279  -0.5456  0  2.411718  0
O  O177  1  0.89384964  0.64258449  0.44222844  1  -1.160611  0  -0.302552  -0.516554  0  2.364167  0
O  O178  1  0.00083603  0.39251438  0.43620942  1  -1.157648  0  -0.313185  -0.54002  0  2.315018  0
O  O179  1  0.87700240  0.50784745  0.58195233  1  -1.163311  0  -0.306502  -0.529526  0  2.35112  0
O  O180  1  0.81733558  0.58496273  0.52703912  1  -1.160561  0  -0.312248  -0.535133  0  2.335586  0
O  O181  1  0.75146244  0.24987069  0.25005522  1  -1.237166  0  -0.571975  -1.037283  0  2.524897  0
O  O182  1  0.60356420  0.35427595  0.30644770  1  -1.170984  0  -0.318298  -0.545949  0  2.327201  0
O  O183  1  0.67383742  0.15730596  0.21765403  1  -1.161437  0  -0.313802  -0.541868  0  2.326642  0
O  O184  1  0.74304685  0.37500525  0.17161535  1  -1.16298  0  -0.304199  -0.519289  0  2.371445  0
O  O185  1  0.59164917  0.24822945  0.29622099  1  -1.164219  0  -0.314254  -0.53579  0  2.309763  0
O  O186  1  0.66783319  0.43484225  0.22667445  1  -1.168736  0  -0.316131  -0.542858  0  2.320345  0
O  O187  1  0.71196326  0.22988765  0.16502055  1  -1.161085  0  -0.306135  -0.533968  0  2.416107  0
O  O188  1  0.87968940  0.21070842  0.17099417  1  -1.161917  0  -0.314111  -0.541629  0  2.336266  0
O  O189  1  0.84989366  0.24659400  0.31665276  1  -1.168035  0  -0.312683  -0.545924  0  2.415352  0
O  O190  1  0.93449413  0.18227084  0.23025714  1  -1.14802  0  -0.302035  -0.516613  0  2.364114  0
O  O191  1  0.76179585  0.36813266  0.30301913  1  -1.162509  0  -0.312103  -0.537522  0  2.310725  0
O  O192  1  0.74157166  0.09574873  0.30230869  1  -1.171213  0  -0.317815  -0.546593  0  2.334088  0
O  O193  1  0.86105837  0.09036067  0.30056983  1  -1.151466  0  -0.310056  -0.526055  0  2.318092  0
O  O194  1  0.24871738  0.74977895  0.74917499  1  -1.218482  0  -0.571176  -1.03661  0  2.523955  0
O  O195  1  0.37384157  0.72254653  0.66756235  1  -1.170412  0  -0.317638  -0.540366  0  2.30199  0
O  O196  1  0.35330294  0.75451631  0.81234686  1  -1.173154  0  -0.306123  -0.528926  0  2.338258  0
O  O197  1  0.16161255  0.93424334  0.72580034  1  -1.153873  0  -0.31617  -0.541  0  2.330523  0
O  O198  1  0.43073119  0.68844571  0.72656760  1  -1.148588  0  -0.316472  -0.544457  0  2.341248  0
O  O199  1  0.22355616  0.87643949  0.66800055  1  -1.165106  0  -0.312809  -0.534144  0  2.307011  0
O  O200  1  0.25225721  0.86914331  0.80252234  1  -1.171015  0  -0.31182  -0.543102  0  2.42249  0
O  O201  1  0.09738689  0.85268876  0.80551783  1  -1.165545  0  -0.315712  -0.542145  0  2.338023  0
O  O202  1  0.18279165  0.64742271  0.71880338  1  -1.162737  0  -0.312198  -0.544698  0  2.413954  0
O  O203  1  0.09001495  0.74610524  0.79255199  1  -1.157707  0  -0.301129  -0.514094  0  2.369931  0
O  O204  1  0.20898110  0.72518397  0.66457628  1  -1.164635  0  -0.313746  -0.541495  0  2.32867  0
O  O205  1  0.36248719  0.59556997  0.79835678  1  -1.154349  0  -0.300642  -0.515458  0  2.374646  0
O  O206  1  0.24416785  0.59571047  0.80562522  1  -1.157296  0  -0.311142  -0.532491  0  2.332901  0
O  O207  1  0.50020894  0.00009338  0.99927103  1  -1.220829  0  -0.571437  -1.031053  0  2.525869  0
O  O208  1  0.50399702  0.15824494  0.95376531  1  -1.173003  0  -0.318048  -0.546457  0  2.332873  0
O  O209  1  0.38486693  0.99174691  0.94353618  1  -1.169257  0  -0.313904  -0.54304  0  2.324894  0
O  O210  1  0.65836130  0.88809618  0.95166613  1  -1.175163  0  -0.317358  -0.542831  0  2.343925  0
O  O211  1  0.39443599  0.15141056  0.94450720  1  -1.1737  0  -0.317033  -0.541403  0  2.310249  0
O  O212  1  0.65779807  0.00554154  0.94913224  1  -1.17238  0  -0.314691  -0.536297  0  2.30371  0
O  O213  1  0.50205853  0.89315041  0.93658973  1  -1.172429  0  -0.310724  -0.543483  0  2.427169  0
O  O214  1  0.56857084  0.81601610  0.02199935  1  -1.137631  0  -0.315745  -0.542968  0  2.339596  0
O  O215  1  0.52244685  0.03636860  0.08517116  1  -1.17324  0  -0.311298  -0.541314  0  2.429406  0
O  O216  1  0.52920048  0.87366348  0.08073255  1  -1.165602  0  -0.314634  -0.535504  0  2.315153  0
O  O217  1  0.59274684  0.07741711  0.03262950  1  -1.161421  0  -0.311318  -0.538075  0  2.326249  0
O  O218  1  0.31398906  0.07951610  0.02075672  1  -1.173068  0  -0.313707  -0.533677  0  2.299328  0
O  O219  1  0.37285378  0.01945414  0.07868518  1  -1.16505  0  -0.317242  -0.54355  0  2.348179  0
O  O220  1  0.21943240  0.60604663  0.39007504  1  -1.193637  0  -0.356437  -0.523223  0  2.136783  0
O  O221  1  0.26665464  0.54931768  0.45678120  1  -1.272718  0  -0.291902  -0.488023  0  2.157457  0
O  O222  1  0.35730228  0.55861578  0.39425832  1  -1.291102  0  -0.317927  -0.544505  0  2.144556  0
O  O223  1  0.81524050  0.45610912  0.67533923  1  -1.225235  0  -0.363176  -0.538364  0  2.18825  0
O  O224  1  0.85524470  0.56318398  0.65956851  1  -1.293618  0  -0.317908  -0.530917  0  2.123964  0
O  O225  1  0.74133206  0.56830638  0.70958696  1  -1.294443  0  -0.314467  -0.524981  0  2.145395  0
O  O226  1  0.06958379  0.34231568  0.66384641  1  -1.151636  0  -0.345451  -0.514441  0  2.140808  0
O  O227  1  0.95148729  0.34822651  0.64696295  1  -1.301169  0  -0.283178  -0.503625  0  2.221079  0
O  O228  1  0.01922920  0.25098938  0.70323872  1  -1.288908  0  -0.30786  -0.531953  0  2.134031  0
O  O229  1  0.77314546  0.71373054  0.38510169  1  -1.177656  0  -0.357556  -0.533613  0  2.196103  0
O  O230  1  0.73773697  0.75841983  0.45250575  1  -1.270024  0  -0.295255  -0.487411  0  2.11964  0
O  O231  1  0.69312677  0.85067073  0.38969676  1  -1.301061  0  -0.31924  -0.544991  0  2.143516  0
O  O232  1  0.80621422  0.41761021  0.08757679  1  -1.192556  0  -0.35922  -0.527206  0  2.132711  0
O  O233  1  0.68995820  0.39760892  0.09327775  1  -1.276863  0  -0.292383  -0.489474  0  2.160054  0
O  O234  1  0.70712319  0.50310382  0.04301026  1  -1.291344  0  -0.31376  -0.538353  0  2.142649  0
O  O235  1  0.08753378  0.14626712  0.25340610  1  -1.179038  0  -0.35599  -0.531316  0  2.19576  0
O  O236  1  0.06233692  0.03648165  0.25044583  1  -1.272647  0  -0.299143  -0.491134  0  2.1121  0
O  O237  1  0.19232253  0.03359990  0.22519505  1  -1.300331  0  -0.319077  -0.545784  0  2.144094  0
O  O238  1  0.51939980  0.48430162  0.80878500  1  -1.163275  0  -0.353895  -0.521539  0  2.137925  0
O  O239  1  0.45157055  0.55731603  0.86673557  1  -1.274923  0  -0.294731  -0.486721  0  2.11276  0
O  O240  1  0.53944249  0.41840528  0.87907840  1  -1.29435  0  -0.318374  -0.54574  0  2.140922  0
O  O241  1  0.97012777  0.69068957  0.79879240  1  -1.184219  0  -0.354757  -0.530417  0  2.187002  0
O  O242  1  0.04672650  0.64329717  0.85610234  1  -1.27463  0  -0.299379  -0.493329  0  2.117452  0
O  O243  1  0.90604328  0.67708846  0.86897817  1  -1.290805  0  -0.317967  -0.544007  0  2.141171  0
