# generated using pymatgen
data_CuH10C12(N2O)2
_symmetry_space_group_name_H-M   'P 1'
_cell_length_a   9.82964488
_cell_length_b   12.03101219
_cell_length_c   12.03292487
_cell_angle_alpha   80.36433544
_cell_angle_beta   65.86624419
_cell_angle_gamma   65.87862837
_symmetry_Int_Tables_number   1
_chemical_formula_structural   CuH10C12(N2O)2
_chemical_formula_sum   'Cu4 H40 C48 N16 O8'
_cell_volume   1185.24440572
_cell_formula_units_Z   4
loop_
 _symmetry_equiv_pos_site_id
 _symmetry_equiv_pos_as_xyz
  1  'x, y, z'
loop_
 _atom_site_type_symbol
 _atom_site_label
 _atom_site_symmetry_multiplicity
 _atom_site_fract_x
 _atom_site_fract_y
 _atom_site_fract_z
 _atom_site_occupancy
 _atom_site_pbe_bader_charge
 _atom_site_pbe_bader_spin_density
 _atom_site_pbe_cm5_charge
 _atom_site_pbe_ddec_charge
 _atom_site_pbe_ddec_spin_density
 _atom_site_pbe_ddec_sum_bond_order
 _atom_site_pbe_magmom
Cu  Cu0  1  0.00000074  1.00000000  0.00000037  1  1.064794  0.55919  0.789893  0.818157  0.747405  2.363712  0.558
Cu  Cu1  1  0.00000086  0.49999945  0.00000034  1  1.065356  0.559279  0.791657  0.820286  0.74763  2.364937  0.558
Cu  Cu2  1  0.49999670  0.50000157  0.49999818  1  1.067285  -0.559229  0.791474  0.822146  -0.747454  2.362262  -0.558
Cu  Cu3  1  0.99999960  0.00000092  0.49999929  1  1.067754  -0.559329  0.789374  0.816872  -0.747579  2.364858  -0.558
H  H4  1  0.22937597  0.78454985  0.84663724  1  0.128318  0.002378  0.12027  0.097254  0.001104  1.01071  0.002
H  H5  1  0.01362530  0.34639968  0.21532838  1  0.107485  0.002403  0.120043  0.097482  0.001123  1.010782  0.002
H  H6  1  0.36036213  0.71513670  0.65344433  1  0.108601  -0.002396  0.118743  0.096333  -0.001108  1.010895  -0.002
H  H7  1  0.07573555  0.15338611  0.28458989  1  0.123464  -0.002373  0.11873  0.09595  -0.001121  1.012218  -0.002
H  H8  1  0.77062548  0.21545055  0.15336247  1  0.12828  0.002378  0.120275  0.097243  0.001104  1.010717  0.002
H  H9  1  0.98637577  0.65359981  0.78467217  1  0.107489  0.002404  0.120039  0.097487  0.001124  1.010782  0.002
H  H10  1  0.63963587  0.28486097  0.34655797  1  0.108498  -0.002396  0.118752  0.096335  -0.001108  1.010927  -0.002
H  H11  1  0.92426516  0.84661429  0.71540946  1  0.12346  -0.002373  0.118723  0.095938  -0.001121  1.012219  -0.002
H  H12  1  0.49339981  0.61397251  0.82938816  1  0.101009  0.001312  0.104833  0.111083  0.000695  1.036848  0.001
H  H13  1  0.10684812  0.32889667  0.38604394  1  0.101144  0.001292  0.104565  0.110433  0.000652  1.036443  0.001
H  H14  1  0.43624323  0.88582331  0.67076502  1  0.109151  -0.001288  0.104462  0.111243  -0.000689  1.036308  -0.001
H  H15  1  0.32235600  0.17079987  0.11391519  1  0.101707  -0.001289  0.104725  0.111068  -0.00065  1.03716  -0.001
H  H16  1  0.50660247  0.38602790  0.17061073  1  0.1012  0.001312  0.104833  0.111054  0.000695  1.036875  0.001
H  H17  1  0.89315267  0.67110191  0.61395624  1  0.101159  0.001292  0.104568  0.110445  0.000652  1.036434  0.001
H  H18  1  0.56375755  0.11417345  0.32923719  1  0.109144  -0.001288  0.104429  0.111208  -0.000689  1.03626  -0.001
H  H19  1  0.67764665  0.82919962  0.88608489  1  0.101833  -0.001289  0.104703  0.111062  -0.00065  1.037118  -0.001
H  H20  1  0.60583190  0.59873356  0.98821528  1  0.100865  -2e-06  0.107544  0.107299  -4.5e-05  1.017124  0.0
H  H21  1  0.20388759  0.48774330  0.40154177  1  0.10564  0.000211  0.108465  0.107878  0.000148  1.016646  0.0
H  H22  1  0.69215030  0.90137243  0.51185701  1  0.088691  4e-06  0.107849  0.105804  4.7e-05  1.018137  0.0
H  H23  1  0.59381262  0.01203294  0.09859335  1  0.094565  -0.00021  0.107732  0.107339  -0.000148  1.017564  0.0
H  H24  1  0.39416963  0.40126502  0.01178526  1  0.100882  -2e-06  0.10756  0.107319  -4.5e-05  1.017161  0.0
H  H25  1  0.79611606  0.51225437  0.59845712  1  0.105669  0.000211  0.108468  0.107879  0.000148  1.016616  0.0
H  H26  1  0.30784983  0.09862433  0.48814363  1  0.088638  4e-06  0.107856  0.105839  4.7e-05  1.018173  0.0
H  H27  1  0.40618937  0.98796473  0.90140720  1  0.094571  -0.00021  0.107735  0.107327  -0.000148  1.017569  0.0
H  H28  1  0.45248188  0.75507974  0.15359168  1  0.12276  0.001385  0.109316  0.118889  0.000768  1.02243  0.001
H  H29  1  0.20713712  0.65329264  0.24526939  1  0.129199  0.001203  0.107969  0.117492  0.000572  1.023115  0.001
H  H30  1  0.86102568  0.74501319  0.34648173  1  0.129698  -0.001387  0.109384  0.119485  -0.000775  1.02275  -0.001
H  H31  1  0.60616947  0.84671523  0.25510893  1  0.133485  -0.001174  0.108768  0.118476  -0.000561  1.022817  -0.001
H  H32  1  0.54751530  0.24491793  0.84641144  1  0.122772  0.001385  0.10933  0.118928  0.000768  1.022424  0.001
H  H33  1  0.79286570  0.34670503  0.75473032  1  0.129194  0.001203  0.107997  0.11753  0.000572  1.023099  0.001
H  H34  1  0.13897362  0.25498357  0.65351973  1  0.129652  -0.001387  0.109395  0.119445  -0.000775  1.022781  -0.001
H  H35  1  0.39383049  0.15328335  0.74489208  1  0.133463  -0.001174  0.108782  0.118465  -0.000561  1.022838  -0.001
H  H36  1  0.19607653  0.92451046  0.15140386  1  0.138026  0.002425  0.117021  0.093315  0.001173  1.029454  0.002
H  H37  1  0.12054590  0.65128104  0.07565463  1  0.09943  0.002302  0.117078  0.093322  0.001014  1.029614  0.001
H  H38  1  0.77221236  0.57541897  0.34862954  1  0.13982  -0.002413  0.117225  0.092958  -0.001171  1.02979  -0.002
H  H39  1  0.34769100  0.84879828  0.42467246  1  0.136511  -0.002271  0.11725  0.093381  -0.001009  1.029445  -0.001
H  H40  1  0.80392380  0.07548721  0.84859835  1  0.138682  0.002425  0.117022  0.093322  0.001173  1.029453  0.002
H  H41  1  0.87945933  0.34871663  0.92434379  1  0.099409  0.002302  0.117064  0.09332  0.001014  1.029603  0.001
H  H42  1  0.22778343  0.42458052  0.65136961  1  0.139853  -0.002413  0.117237  0.092969  -0.001171  1.029779  -0.002
H  H43  1  0.65230776  0.15120121  0.57532818  1  0.136512  -0.002271  0.117265  0.093405  -0.001009  1.029458  -0.001
C  C44  1  0.12630642  0.18631381  0.99862490  1  1.770969  0.014673  0.266974  0.562962  0.013591  4.353399  0.014
C  C45  1  0.31261336  0.49868710  0.81367064  1  1.790471  0.014704  0.266931  0.567113  0.013739  4.353213  0.014
C  C46  1  0.81129030  0.31366292  0.50119908  1  1.753605  -0.015088  0.271761  0.570113  -0.013634  4.34848  -0.014
C  C47  1  0.12494874  0.00105070  0.68627094  1  1.736828  -0.01512  0.267578  0.567885  -0.013699  4.352695  -0.014
C  C48  1  0.87369606  0.81368751  0.00137556  1  1.770909  0.014678  0.266936  0.562844  0.013592  4.353619  0.014
C  C49  1  0.68738727  0.50131512  0.18632787  1  1.790466  0.014703  0.266911  0.567115  0.013738  4.353156  0.014
C  C50  1  0.18870999  0.68634568  0.49879212  1  1.753837  -0.015075  0.271762  0.570047  -0.013633  4.348467  -0.014
C  C51  1  0.87504856  0.99895152  0.31373090  1  1.737024  -0.015121  0.267598  0.567927  -0.013698  4.352666  -0.014
C  C52  1  0.28716014  0.77562922  0.90964866  1  0.475383  -0.001363  0.047107  0.086624  -8.8e-05  3.936289  -0.001
C  C53  1  0.06255485  0.40935321  0.22432552  1  0.437297  -0.001499  0.046876  0.084909  -0.000331  3.938727  -0.001
C  C54  1  0.47228933  0.72413613  0.59043748  1  0.449842  0.001363  0.049601  0.087879  9.7e-05  3.93619  0.001
C  C55  1  0.19663004  0.09046763  0.27571152  1  0.416998  0.001501  0.04893  0.087387  0.000336  3.936653  0.001
C  C56  1  0.71284251  0.22437027  0.09035143  1  0.475033  -0.00136  0.047134  0.086672  -8.8e-05  3.936282  -0.001
C  C57  1  0.93744677  0.59064537  0.77567382  1  0.437386  -0.0015  0.046854  0.08487  -0.00033  3.938677  -0.001
C  C58  1  0.52770989  0.27586245  0.40956315  1  0.449995  0.001363  0.049628  0.087883  9.7e-05  3.936212  0.001
C  C59  1  0.80337206  0.90953277  0.72428977  1  0.416963  0.001501  0.048926  0.0874  0.000336  3.93666  0.001
C  C60  1  0.43202504  0.68076131  0.90222402  1  -0.079876  0.006162  -0.084958  -0.131713  0.004304  3.964014  0.005
C  C61  1  0.11239355  0.40181698  0.31926795  1  -0.005937  0.006187  -0.083808  -0.129578  0.004337  3.962481  0.005
C  C62  1  0.51467294  0.81907692  0.59787095  1  -0.036372  -0.006042  -0.084555  -0.13309  -0.004303  3.962758  -0.005
C  C63  1  0.33401422  0.09796199  0.18077624  1  -0.005761  -0.00613  -0.081545  -0.12927  -0.004313  3.960537  -0.005
C  C64  1  0.56797715  0.31923910  0.09777607  1  -0.080084  0.006163  -0.084992  -0.131719  0.004304  3.964001  0.005
C  C65  1  0.88760604  0.59818251  0.68073185  1  -0.006015  0.006188  -0.083822  -0.129601  0.004337  3.962484  0.005
C  C66  1  0.48532747  0.18092075  0.40213006  1  -0.036381  -0.006042  -0.084547  -0.132955  -0.004303  3.962523  -0.005
C  C67  1  0.66598872  0.90203841  0.81922422  1  -0.005887  -0.00613  -0.081533  -0.129276  -0.004313  3.960547  -0.005
C  C68  1  0.49373628  0.67241057  0.99029152  1  0.03302  -0.00429  -0.061731  -0.016659  -0.002941  3.922945  -0.003
C  C69  1  0.16565113  0.48992210  0.32776298  1  -0.048341  -0.004001  -0.064273  -0.019125  -0.002684  3.92459  -0.003
C  C70  1  0.65605846  0.82758400  0.50976086  1  0.004001  0.004279  -0.062745  -0.015468  0.002927  3.925303  0.003
C  C71  1  0.48389596  0.00995033  0.17238902  1  -0.024305  0.004037  -0.065233  -0.019877  0.002709  3.925561  0.003
C  C72  1  0.50626425  0.32758983  0.00971023  1  0.033012  -0.00429  -0.061727  -0.016619  -0.002941  3.922912  -0.003
C  C73  1  0.83435123  0.51007648  0.67223674  1  -0.048346  -0.004001  -0.06432  -0.019172  -0.002684  3.924633  -0.003
C  C74  1  0.34394092  0.17241276  0.49023940  1  0.004711  0.004279  -0.062761  -0.015612  0.002927  3.925229  0.003
C  C75  1  0.51610557  0.99004825  0.82761153  1  -0.024318  0.004037  -0.065215  -0.019847  0.002709  3.925502  0.003
C  C76  1  0.40901015  0.75971355  0.08249604  1  -0.078554  0.006146  -0.080714  -0.121574  0.004322  3.950266  0.005
C  C77  1  0.16838878  0.58219511  0.24049316  1  -0.009472  0.006106  -0.079008  -0.119312  0.004287  3.94991  0.005
C  C78  1  0.75106277  0.74028658  0.41757079  1  -0.031716  -0.006116  -0.081535  -0.123308  -0.00429  3.951586  -0.005
C  C79  1  0.49151723  0.91778737  0.25977523  1  -0.011713  -0.006166  -0.080801  -0.121024  -0.004345  3.948161  -0.005
C  C80  1  0.59099055  0.24028503  0.91750534  1  -0.078516  0.006147  -0.080757  -0.121692  0.004323  3.950295  0.005
C  C81  1  0.83161275  0.41780347  0.75950739  1  -0.009719  0.006108  -0.07899  -0.119271  0.004287  3.950006  0.005
C  C82  1  0.24893496  0.25971201  0.58242910  1  -0.032323  -0.006116  -0.081572  -0.123256  -0.00429  3.951502  -0.005
C  C83  1  0.50848311  0.08221212  0.74022494  1  -0.011659  -0.006166  -0.080777  -0.120986  -0.004345  3.94812  -0.005
C  C84  1  0.26622776  0.85286616  0.08298337  1  0.424603  -0.000923  0.045896  0.083798  0.000177  3.922747  -0.001
C  C85  1  0.11897421  0.58275339  0.14723665  1  0.450353  -0.001255  0.047517  0.085372  -4.7e-05  3.921216  -0.001
C  C86  1  0.70212971  0.64703320  0.41708563  1  0.426957  0.000966  0.047706  0.087053  -0.000166  3.920606  0.001
C  C87  1  0.34928543  0.91724217  0.35299598  1  0.412163  0.001213  0.04688  0.083914  3.7e-05  3.919619  0.001
C  C88  1  0.73377294  0.14713242  0.91701801  1  0.423904  -0.000922  0.045924  0.083837  0.000177  3.922859  -0.001
C  C89  1  0.88102861  0.41724428  0.85276307  1  0.450574  -0.001256  0.04751  0.085345  -4.7e-05  3.921256  -0.001
C  C90  1  0.29786757  0.35296629  0.58291425  1  0.426809  0.000966  0.047737  0.087103  -0.000166  3.920563  0.001
C  C91  1  0.65071444  0.08275823  0.64700420  1  0.412152  0.001213  0.046837  0.08389  3.7e-05  3.919629  0.001
N  N92  1  0.06554440  0.11293037  0.04511053  1  -1.307343  0.069636  -0.482791  -0.713067  0.045561  3.297844  0.052
N  N93  1  0.17858093  0.54516796  0.88720804  1  -1.32971  0.069814  -0.482657  -0.714241  0.045586  3.295229  0.052
N  N94  1  0.72368473  0.38708701  0.45471643  1  -1.303217  -0.069272  -0.485439  -0.717243  -0.04555  3.296214  -0.052
N  N95  1  0.11076428  0.95455923  0.61290318  1  -1.295956  -0.069364  -0.482531  -0.714277  -0.045545  3.296308  -0.052
N  N96  1  0.93445955  0.88707003  0.95488669  1  -1.307343  0.069631  -0.482764  -0.712975  0.045559  3.298042  0.052
N  N97  1  0.82141932  0.45483335  0.11279130  1  -1.329707  0.069813  -0.48265  -0.714256  0.045585  3.295215  0.052
N  N98  1  0.27631285  0.61291795  0.54527374  1  -1.303313  -0.06928  -0.485401  -0.71717  -0.045547  3.296183  -0.052
N  N99  1  0.88923349  0.04544390  0.38709662  1  -1.295885  -0.06936  -0.48252  -0.714295  -0.045543  3.296482  -0.052
N  N100  1  0.20677224  0.86031364  0.99785014  1  -1.195291  0.09734  -0.339282  -0.228103  0.067296  3.615767  0.085
N  N101  1  0.06698106  0.49765045  0.13968111  1  -1.197577  0.097472  -0.34049  -0.229505  0.067437  3.615115  0.085
N  N102  1  0.56496421  0.63952271  0.50219178  1  -1.218004  -0.097548  -0.341366  -0.229878  -0.067409  3.61656  -0.085
N  N103  1  0.20461867  0.00226867  0.36041760  1  -1.207819  -0.097536  -0.340677  -0.227466  -0.067423  3.615831  -0.085
N  N104  1  0.79322792  0.13968768  0.00215040  1  -1.194913  0.097341  -0.339304  -0.228158  0.067299  3.615955  0.085
N  N105  1  0.93302176  0.50234722  0.86031860  1  -1.197572  0.097474  -0.340431  -0.229444  0.067438  3.615015  0.085
N  N106  1  0.43503158  0.36047678  0.49780736  1  -1.217869  -0.097548  -0.341396  -0.229971  -0.067409  3.616642  -0.085
N  N107  1  0.79537992  0.99773264  0.63958340  1  -1.207806  -0.097539  -0.340694  -0.227519  -0.067425  3.6158  -0.085
O  O108  1  0.18879768  0.26064480  0.95781143  1  -1.166799  0.024682  -0.264439  -0.459241  0.01584  2.243483  0.021
O  O109  1  0.44934297  0.45787515  0.73921275  1  -1.163205  0.027166  -0.264841  -0.462523  0.017553  2.245749  0.022
O  O110  1  0.90728805  0.23929138  0.54197400  1  -1.154212  -0.024582  -0.266671  -0.462756  -0.015782  2.241673  -0.021
O  O111  1  0.14654057  0.04187223  0.76057760  1  -1.143512  -0.02723  -0.264827  -0.461907  -0.017613  2.244395  -0.022
O  O112  1  0.81120167  0.73935742  0.04219393  1  -1.166713  0.024685  -0.264437  -0.459215  0.015842  2.243468  0.021
O  O113  1  0.55065684  0.54212889  0.26078456  1  -1.163173  0.027164  -0.264829  -0.462485  0.017552  2.245634  0.022
O  O114  1  0.09271393  0.76071995  0.45801748  1  -1.154395  -0.024577  -0.26671  -0.462773  -0.015778  2.241769  -0.021
O  O115  1  0.85345636  0.95812908  0.23942506  1  -1.143752  -0.02723  -0.264854  -0.461936  -0.017613  2.244195  -0.022
