# generated using pymatgen
data_Zn2H10C32S3N6Cl8O11
_symmetry_space_group_name_H-M   'P 1'
_cell_length_a   12.68621802
_cell_length_b   16.14932520
_cell_length_c   17.25175841
_cell_angle_alpha   95.61186103
_cell_angle_beta   93.15436730
_cell_angle_gamma   94.66071817
_symmetry_Int_Tables_number   1
_chemical_formula_structural   Zn2H10C32S3N6Cl8O11
_chemical_formula_sum   'Zn2 H10 C32 S3 N6 Cl8 O11'
_cell_volume   3498.79110524
_cell_formula_units_Z   1
loop_
 _symmetry_equiv_pos_site_id
 _symmetry_equiv_pos_as_xyz
  1  'x, y, z'
loop_
 _atom_site_type_symbol
 _atom_site_label
 _atom_site_symmetry_multiplicity
 _atom_site_fract_x
 _atom_site_fract_y
 _atom_site_fract_z
 _atom_site_occupancy
 _atom_site_pbe_bader_charge
 _atom_site_pbe_bader_spin_density
 _atom_site_pbe_cm5_charge
 _atom_site_pbe_ddec_charge
 _atom_site_pbe_ddec_spin_density
 _atom_site_pbe_ddec_sum_bond_order
 _atom_site_pbe_magmom
Zn  Zn0  1  0.49741862  0.40600044  0.49370546  1  1.316782  0  0.674715  0.884427  0  2.293984  0
Zn  Zn1  1  0.51571279  0.58723172  0.50340935  1  1.295873  0  0.669742  0.854641  0  2.350233  0
H  H2  1  0.38926790  0.70615276  0.43908794  1  0.111113  0  0.132516  0.112151  0  0.970346  0
H  H3  1  0.38367626  0.86230899  0.43429856  1  0.124005  0  0.123108  0.133669  0  0.991835  0
H  H4  1  0.35444265  0.10107637  0.38701700  1  0.14104  0  0.124716  0.150757  0  0.975122  0
H  H5  1  0.59336324  0.11637445  0.57736116  1  0.138487  0  0.119857  0.145113  0  1.00522  0
H  H6  1  0.45241328  0.60713469  0.25936344  1  0.109194  0  0.107033  0.116301  0  0.997772  0
H  H7  1  0.44775764  0.60621591  0.11309027  1  0.110013  0  0.109299  0.113253  0  1.007174  0
H  H8  1  0.47030797  0.65832950  0.88823186  1  0.09854  0  0.110952  0.13053  0  0.991097  0
H  H9  1  0.48679267  0.39396738  0.89199145  1  0.139319  0  0.109797  0.127529  0  1.021654  0
H  H10  1  0.87833712  0.63321168  0.48657727  1  0.103153  0  0.113241  0.139438  0  0.98378  0
H  H11  1  0.05434812  0.27370094  0.41326839  1  0.620396  0  0.348514  0.400306  0  0.842263  0
C  C12  1  0.50851540  0.49442897  0.34836833  1  1.582266  0  0.213153  0.606472  0  4.153434  0
C  C13  1  0.30276360  0.49979829  0.49559100  1  1.643481  0  0.206754  0.601203  0  4.215848  0
C  C14  1  0.49412691  0.49924237  0.64634593  1  1.61698  0  0.211341  0.61289  0  4.15259  0
C  C15  1  0.70978616  0.50586705  0.50089977  1  1.594826  0  0.205967  0.610767  0  4.20274  0
C  C16  1  0.44762847  0.75155251  0.47177445  1  0.451091  0  0.060177  0.119938  0  3.906054  0
C  C17  1  0.44451988  0.83659396  0.46944857  1  0.068329  0  -0.070946  -0.178521  0  3.926908  0
C  C18  1  0.52285634  0.89089909  0.51321398  1  0.452871  0  0.103618  0.154846  0  4.014156  0
C  C19  1  0.60110220  0.85714317  0.55875318  1  0.125098  0  0.028287  -0.002073  0  3.982189  0
C  C20  1  0.59797701  0.76924264  0.55753537  1  0.691289  0  0.152739  0.227207  0  4.042969  0
C  C21  1  0.41113494  0.13676961  0.42962848  1  0.065349  0  -0.075542  -0.253072  0  3.886664  0
C  C22  1  0.47195569  0.09745834  0.48239690  1  0.331579  0  0.109178  0.241808  0  4.029215  0
C  C23  1  0.54450509  0.14551398  0.53596347  1  0.075556  0  -0.082985  -0.263054  0  3.908404  0
C  C24  1  0.55335262  0.23159129  0.53427639  1  0.573108  0  0.155968  0.317707  0  4.029686  0
C  C25  1  0.42672745  0.22367169  0.43177788  1  0.634847  0  0.159857  0.316594  0  4.029929  0
C  C26  1  0.51450568  0.48836782  0.26078207  1  0.033529  0  -0.012146  -0.06525  0  3.886294  0
C  C27  1  0.47879853  0.55505332  0.22264105  1  -0.038118  0  -0.082894  -0.078135  0  3.995287  0
C  C28  1  0.47630285  0.55485574  0.14246173  1  0.011004  0  -0.08413  -0.137004  0  3.981947  0
C  C29  1  0.50969829  0.48638858  0.09648461  1  0.381127  0  0.088983  0.12628  0  4.040197  0
C  C30  1  0.54758987  0.41912592  0.13327131  1  0.133289  0  0.016637  0.031869  0  3.973198  0
C  C31  1  0.55113067  0.42016718  0.21528732  1  0.091188  0  0.01646  0.08108  0  3.980568  0
C  C32  1  0.47487287  0.59682067  0.85719773  1  0.051435  0  -0.08891  -0.222307  0  3.943047  0
C  C33  1  0.48318687  0.52764567  0.89914998  1  0.301447  0  0.088036  0.206505  0  4.056751  0
C  C34  1  0.48386176  0.44801727  0.85922731  1  0.097223  0  -0.094077  -0.224731  0  3.944948  0
C  C35  1  0.48123184  0.43847200  0.77831215  1  0.018219  0  0.029932  0.170686  0  3.990354  0
C  C36  1  0.48108694  0.50786602  0.73329853  1  0.076144  0  -0.012608  -0.134775  0  3.816262  0
C  C37  1  0.47317602  0.58663534  0.77591368  1  0.031365  0  0.026144  0.164428  0  3.989278  0
C  C38  1  0.11063334  0.43282763  0.51166237  1  -0.095366  0  -0.028911  -0.161823  0  3.988957  0
C  C39  1  0.90026066  0.57092552  0.49538711  1  0.075421  0  -0.097593  -0.146819  0  3.981111  0
C  C40  1  0.18626556  0.49798039  0.50245453  1  -0.130304  0  -0.006543  -0.085396  0  3.896227  0
C  C41  1  0.82624062  0.50516878  0.50311299  1  -0.167805  0  -0.024167  -0.104737  0  3.96344  0
C  C42  1  0.00390260  0.54467981  0.49997764  1  -0.207796  0  -0.025658  -0.004972  0  4.071623  0
C  C43  1  0.00636273  0.45944431  0.51086196  1  -0.157393  0  -0.025812  -0.039198  0  4.079737  0
S  S44  1  0.13005629  0.59142711  0.49483827  1  0.279488  0  0.089  0.131486  0  2.756544  0
S  S45  1  0.88094108  0.41211700  0.51737405  1  0.305722  0  0.081478  0.138163  0  2.871144  0
S  S46  1  0.12869117  0.32687393  0.52260672  1  3.055222  0  0.536302  1.176971  0  5.981169  0
N  N47  1  0.52330825  0.71866691  0.51466840  1  -1.196259  0  -0.304841  -0.231896  0  3.470225  0
N  N48  1  0.53190197  0.97851271  0.51403775  1  -0.476417  0  -0.126385  -0.087081  0  3.270254  0
N  N49  1  0.45666446  0.00888958  0.47859401  1  -0.467223  0  -0.121951  -0.102883  0  3.165084  0
N  N50  1  0.49462517  0.27170727  0.48406370  1  -1.155029  0  -0.299615  -0.305428  0  3.358346  0
N  N51  1  0.50495169  0.47765991  0.01470662  1  -0.47283  0  -0.144274  -0.100454  0  3.321422  0
N  N52  1  0.48954445  0.54282225  0.98177416  1  -0.466011  0  -0.143697  -0.132713  0  3.209558  0
Cl  Cl53  1  0.69101603  0.72613478  0.61159465  1  -0.097365  0  0.063927  0.009197  0  1.624367  0
Cl  Cl54  1  0.69705387  0.91980981  0.61414772  1  -0.125238  0  0.028071  -0.023614  0  1.555446  0
Cl  Cl55  1  0.35781912  0.27099462  0.36379585  1  -0.103242  0  0.066603  0.010259  0  1.597096  0
Cl  Cl56  1  0.64596960  0.28856676  0.59759782  1  -0.109028  0  0.058625  -0.008138  0  1.621717  0
Cl  Cl57  1  0.60328381  0.33750224  0.25493236  1  -0.162692  0  -0.013601  -0.058534  0  1.616217  0
Cl  Cl58  1  0.59101839  0.33656791  0.07696797  1  -0.171387  0  -0.012152  -0.072374  0  1.559873  0
Cl  Cl59  1  0.45492252  0.67632237  0.73092423  1  -0.194338  0  -0.022003  -0.081922  0  1.511663  0
Cl  Cl60  1  0.47860503  0.33618269  0.73742134  1  -0.173244  0  -0.011942  -0.071484  0  1.567807  0
O  O61  1  0.52211496  0.42914083  0.38152960  1  -1.160777  0  -0.315856  -0.557402  0  2.46719  0
O  O62  1  0.48869317  0.56486710  0.38206384  1  -1.1613  0  -0.321649  -0.554095  0  2.288188  0
O  O63  1  0.35405123  0.57141298  0.51334014  1  -1.159569  0  -0.323118  -0.557838  0  2.32141  0
O  O64  1  0.33986683  0.43242610  0.47163689  1  -1.148852  0  -0.305938  -0.53101  0  2.375403  0
O  O65  1  0.53730602  0.56249479  0.61818238  1  -1.157115  0  -0.322159  -0.564703  0  2.415097  0
O  O66  1  0.46367498  0.42949689  0.60791755  1  -1.146872  0  -0.308492  -0.529463  0  2.386657  0
O  O67  1  0.65837402  0.43832915  0.51464425  1  -1.16668  0  -0.324059  -0.566682  0  2.395897  0
O  O68  1  0.67116957  0.57324307  0.48566012  1  -1.156004  0  -0.32266  -0.544089  0  2.331781  0
O  O69  1  0.12857268  0.28633167  0.43248243  1  -1.167988  0  -0.36763  -0.550764  0  2.163119  0
O  O70  1  0.23035109  0.31525603  0.55746626  1  -1.272295  0  -0.293817  -0.482556  0  2.151849  0
O  O71  1  0.03223340  0.29331874  0.55309121  1  -1.29187  0  -0.321966  -0.547479  0  2.145393  0
