# generated using pymatgen
data_CdSi2H60C66I2(N2O3)2
_symmetry_space_group_name_H-M   'P 1'
_cell_length_a   7.80405643
_cell_length_b   14.05702703
_cell_length_c   14.41736286
_cell_angle_alpha   69.70763277
_cell_angle_beta   87.60178968
_cell_angle_gamma   87.67054062
_symmetry_Int_Tables_number   1
_chemical_formula_structural   CdSi2H60C66I2(N2O3)2
_chemical_formula_sum   'Cd1 Si2 H60 C66 I2 N4 O6'
_cell_volume   1481.57291645
_cell_formula_units_Z   1
loop_
 _symmetry_equiv_pos_site_id
 _symmetry_equiv_pos_as_xyz
  1  'x, y, z'
loop_
 _atom_site_type_symbol
 _atom_site_label
 _atom_site_symmetry_multiplicity
 _atom_site_fract_x
 _atom_site_fract_y
 _atom_site_fract_z
 _atom_site_occupancy
 _atom_site_hle17_bader_spin_density
 _atom_site_hle17_ddec_charge
 _atom_site_hle17_ddec_spin_density
 _atom_site_hle17_ddec_sum_bond_order
 _atom_site_hle17_magmom
 _atom_site_hse06_10hf_bader_spin_density
 _atom_site_hse06_10hf_ddec_charge
 _atom_site_hse06_10hf_ddec_spin_density
 _atom_site_hse06_10hf_ddec_sum_bond_order
 _atom_site_hse06_10hf_magmom
 _atom_site_hse06_bader_spin_density
 _atom_site_hse06_ddec_charge
 _atom_site_hse06_ddec_spin_density
 _atom_site_hse06_ddec_sum_bond_order
 _atom_site_hse06_magmom
 _atom_site_pbe_bader_spin_density
 _atom_site_pbe_cm5_charge
 _atom_site_pbe_ddec_charge
 _atom_site_pbe_ddec_spin_density
 _atom_site_pbe_ddec_sum_bond_order
 _atom_site_pbe_magmom
Cd  Cd0  1  0.50000005  0.99999763  0.50000067  1  0  0.820749  0  1.953103  0  0  0.631224  0  2.383293  0  0  0.682381  0  2.349235  0  0  0.61193  0.595974  0  2.405656  0
Si  Si1  1  0.18476752  0.37639332  0.88089434  1  0  1.438337  0  3.6397  0  0  1.246374  0  4.114447  0  0  1.293747  0  4.068107  0  0  0.366498  1.213095  0  4.14653  0
Si  Si2  1  0.81523405  0.62360774  0.11910642  1  0  1.438306  0  3.639854  0  0  1.246275  0  4.114968  0  0  1.293589  0  4.068757  0  0  0.366534  1.21299  0  4.147046  0
H  H3  1  0.54880549  0.08273417  0.68147433  1  0  0.072645  0  0.959882  0  0  0.077988  0  1.030264  0  0  0.080073  0  1.029104  0  0  0.10828  0.076417  0  1.031194  0
H  H4  1  0.45119507  0.91726007  0.31852594  1  0  0.072694  0  0.959857  0  0  0.078012  0  1.030262  0  0  0.080104  0  1.029107  0  0  0.108266  0.076439  0  1.031199  0
H  H5  1  0.40287040  0.08431305  0.83847438  1  0  0.112019  0  0.960019  0  0  0.120914  0  1.02204  0  0  0.123889  0  1.021986  0  0  0.107685  0.118784  0  1.022237  0
H  H6  1  0.59712605  0.91568728  0.16152327  1  0  0.112026  0  0.959922  0  0  0.120956  0  1.021915  0  0  0.123931  0  1.021859  0  0  0.107695  0.118824  0  1.022117  0
H  H7  1  0.97057621  0.94595035  0.76145099  1  0  0.10759  0  0.977627  0  0  0.115224  0  1.043137  0  0  0.118885  0  1.04177  0  0  0.096982  0.112567  0  1.044286  0
H  H8  1  0.02942164  0.05404769  0.23854947  1  0  0.107596  0  0.977667  0  0  0.115229  0  1.043185  0  0  0.118888  0  1.041821  0  0  0.096986  0.112574  0  1.044327  0
H  H9  1  0.12976592  0.95479833  0.60700106  1  0  0.068814  0  0.970738  0  0  0.073544  0  1.045759  0  0  0.076004  0  1.043347  0  0  0.103794  0.071735  0  1.047519  0
H  H10  1  0.87023343  0.04519439  0.39300183  1  0  0.068874  0  0.970729  0  0  0.073562  0  1.045803  0  0  0.076023  0  1.043391  0  0  0.1038  0.071751  0  1.047563  0
H  H11  1  0.92509529  0.13859597  0.74873032  1  0  0.080302  0  0.991648  0  0  0.089506  0  1.058843  0  0  0.091406  0  1.059774  0  0  0.093767  0.088163  0  1.058249  0
H  H12  1  0.07490868  0.86140888  0.25126843  1  0  0.080295  0  0.991676  0  0  0.089486  0  1.058883  0  0  0.091384  0  1.059813  0  0  0.093768  0.088142  0  1.058289  0
H  H13  1  0.66143421  0.23926996  0.75129430  1  0  0.08229  0  0.965461  0  0  0.095172  0  1.023562  0  0  0.097607  0  1.022909  0  0  0.098135  0.093442  0  1.024072  0
H  H14  1  0.33857349  0.76073791  0.24870475  1  0  0.082288  0  0.965326  0  0  0.095147  0  1.023465  0  0  0.09758  0  1.022817  0  0  0.098125  0.093418  0  1.023975  0
H  H15  1  0.51381450  0.22874065  0.91054986  1  0  0.097574  0  0.977424  0  0  0.10376  0  1.044938  0  0  0.107373  0  1.042416  0  0  0.104012  0.101089  0  1.046893  0
H  H16  1  0.48618819  0.77126420  0.08944822  1  0  0.097597  0  0.977424  0  0  0.103734  0  1.044991  0  0  0.107366  0  1.04245  0  0  0.104015  0.101064  0  1.046943  0
H  H17  1  0.37072615  0.88451518  0.93159854  1  0  0.089702  0  0.97285  0  0  0.10242  0  1.030426  0  0  0.104722  0  1.03067  0  0  0.09946  0.100799  0  1.030307  0
H  H18  1  0.62926778  0.11548439  0.06840082  1  0  0.089659  0  0.972785  0  0  0.102379  0  1.030372  0  0  0.104682  0  1.030612  0  0  0.099438  0.100758  0  1.030254  0
H  H19  1  0.46197427  0.24361194  0.43317206  1  0  0.066167  0  1.003573  0  0  0.071145  0  1.077022  0  0  0.073581  0  1.075374  0  0  0.094028  0.069325  0  1.078241  0
H  H20  1  0.53802621  0.75638456  0.56683094  1  0  0.066216  0  1.003493  0  0  0.071181  0  1.076968  0  0  0.073617  0  1.075319  0  0  0.09401  0.069341  0  1.078204  0
H  H21  1  0.60269042  0.39993728  0.43314732  1  0  0.103891  0  0.972174  0  0  0.112768  0  1.035738  0  0  0.115456  0  1.036168  0  0  0.103919  0.110862  0  1.035568  0
H  H22  1  0.39730364  0.60005924  0.56685444  1  0  0.10392  0  0.972078  0  0  0.11278  0  1.035667  0  0  0.115474  0  1.036083  0  0  0.103926  0.110874  0  1.035499  0
H  H23  1  0.04227150  0.21099837  0.56274864  1  0  0.110526  0  0.939305  0  0  0.122201  0  0.996093  0  0  0.125365  0  0.995541  0  0  0.10736  0.119937  0  0.996663  0
H  H24  1  0.95773130  0.78900348  0.43724698  1  0  0.110595  0  0.939188  0  0  0.122259  0  0.995987  0  0  0.125425  0  0.99543  0  0  0.10738  0.119991  0  0.996556  0
H  H25  1  0.88064387  0.06234337  0.55957762  1  0  0.058437  0  1.010215  0  0  0.062346  0  1.088017  0  0  0.064911  0  1.085618  0  0  0.091659  0.060453  0  1.089759  0
H  H26  1  0.11936029  0.93765693  0.44042194  1  0  0.058464  0  1.010185  0  0  0.062386  0  1.087968  0  0  0.06496  0  1.085551  0  0  0.091683  0.060494  0  1.089709  0
H  H27  1  0.63433040  0.36610195  0.61957821  1  0  0.079703  0  0.991617  0  0  0.092178  0  1.052462  0  0  0.094789  0  1.051814  0  0  0.095684  0.090325  0  1.053011  0
H  H28  1  0.36567377  0.63389834  0.38042274  1  0  0.079654  0  0.991671  0  0  0.092149  0  1.052493  0  0  0.094759  0  1.051845  0  0  0.095677  0.090296  0  1.053038  0
H  H29  1  0.51725645  0.45937136  0.72503685  1  0  0.090084  0  0.971775  0  0  0.099395  0  1.035468  0  0  0.102159  0  1.034604  0  0  0.101431  0.097381  0  1.036183  0
H  H30  1  0.48275164  0.54062739  0.27496660  1  0  0.090054  0  0.971726  0  0  0.099339  0  1.035466  0  0  0.102101  0  1.034591  0  0  0.101431  0.097321  0  1.036185  0
H  H31  1  0.65286004  0.61987350  0.71999338  1  0  0.087791  0  0.976584  0  0  0.095873  0  1.042297  0  0  0.098122  0  1.042618  0  0  0.095008  0.09422  0  1.042216  0
H  H32  1  0.34714929  0.38012601  0.28000840  1  0  0.087784  0  0.976594  0  0  0.095847  0  1.042338  0  0  0.098097  0  1.04266  0  0  0.094988  0.094183  0  1.042262  0
H  H33  1  0.09253890  0.31913476  0.38402147  1  0  0.087445  0  1.005004  0  0  0.095494  0  1.072952  0  0  0.098423  0  1.071864  0  0  0.088021  0.093423  0  1.073756  0
H  H34  1  0.90746393  0.68086632  0.61597509  1  0  0.087414  0  1.004991  0  0  0.095525  0  1.072872  0  0  0.098453  0  1.071784  0  0  0.088008  0.093433  0  1.0737  0
H  H35  1  0.29878758  0.29459834  0.67366230  1  0  0.069188  0  0.932892  0  0  0.087601  0  0.996582  0  0  0.087805  0  0.996677  0  0  0.090087  0.087375  0  0.996569  0
H  H36  1  0.70121155  0.70539968  0.32633953  1  0  0.06917  0  0.932873  0  0  0.087583  0  0.996567  0  0  0.087787  0  0.996661  0  0  0.090074  0.087358  0  0.996555  0
H  H37  1  0.22040019  0.41992760  0.65965471  1  0  0.061378  0  0.960384  0  0  0.075359  0  1.034041  0  0  0.075043  0  1.035744  0  0  0.089376  0.075477  0  1.032957  0
H  H38  1  0.77960022  0.58007043  0.34034570  1  0  0.061376  0  0.960412  0  0  0.075348  0  1.03408  0  0  0.075032  0  1.035783  0  0  0.089378  0.075466  0  1.032996  0
H  H39  1  0.08237105  0.31477312  0.71087674  1  0  0.073649  0  0.951683  0  0  0.087418  0  1.023954  0  0  0.08796  0  1.024388  0  0  0.093709  0.086925  0  1.023762  0
H  H40  1  0.91762933  0.68522566  0.28912412  1  0  0.073641  0  0.951628  0  0  0.087417  0  1.023887  0  0  0.087959  0  1.02432  0  0  0.093711  0.086924  0  1.023696  0
H  H41  1  0.72298693  0.38424138  0.90607419  1  0  0.076043  0  0.948904  0  0  0.093563  0  1.01539  0  0  0.093682  0  1.015937  0  0  0.094312  0.093346  0  1.01515  0
H  H42  1  0.27701464  0.61575967  0.09392727  1  0  0.076063  0  0.948848  0  0  0.093579  0  1.015341  0  0  0.093697  0  1.015891  0  0  0.094321  0.093361  0  1.015103  0
H  H43  1  0.85386320  0.48085628  0.91774172  1  0  0.068346  0  0.942904  0  0  0.085419  0  1.009978  0  0  0.0858  0  1.010084  0  0  0.093639  0.085063  0  1.00996  0
H  H44  1  0.14613709  0.51914477  0.08225977  1  0  0.068262  0  0.942909  0  0  0.085356  0  1.009973  0  0  0.085737  0  1.010078  0  0  0.09362  0.085  0  1.009956  0
H  H45  1  0.85970509  0.35625068  0.00885023  1  0  0.065999  0  0.969756  0  0  0.082309  0  1.038438  0  0  0.082041  0  1.040525  0  0  0.090938  0.082412  0  1.037061  0
H  H46  1  0.14029777  0.64375037  0.99115120  1  0  0.065988  0  0.969799  0  0  0.082288  0  1.038486  0  0  0.082021  0  1.04057  0  0  0.09094  0.08239  0  1.03711  0
H  H47  1  0.27010299  0.18464129  0.11754336  1  0  0.077483  0  0.951358  0  0  0.092474  0  1.020629  0  0  0.093578  0  1.019363  0  0  0.08692  0.091574  0  1.021604  0
H  H48  1  0.72989732  0.81535902  0.88245629  1  0  0.077499  0  0.951348  0  0  0.092493  0  1.020613  0  0  0.093595  0  1.019347  0  0  0.086924  0.091592  0  1.021588  0
H  H49  1  0.25107245  0.15724893  0.00569147  1  0  0.06665  0  0.950289  0  0  0.08007  0  1.022961  0  0  0.08041  0  1.023578  0  0  0.091698  0.07973  0  1.022623  0
H  H50  1  0.74892662  0.84275062  0.99430916  1  0  0.066631  0  0.950305  0  0  0.080049  0  1.022976  0  0  0.080385  0  1.023597  0  0  0.091684  0.079708  0  1.022639  0
H  H51  1  0.06903515  0.20420517  0.05785656  1  0  0.069665  0  0.948044  0  0  0.086767  0  1.014475  0  0  0.087028  0  1.015154  0  0  0.094093  0.086483  0  1.014098  0
H  H52  1  0.93096388  0.79579513  0.94214382  1  0  0.06967  0  0.948043  0  0  0.08677  0  1.014476  0  0  0.087031  0  1.01515  0  0  0.094105  0.086487  0  1.014097  0
H  H53  1  0.01875352  0.57355877  0.77239486  1  0  0.074235  0  0.992885  0  0  0.085507  0  1.056923  0  0  0.087589  0  1.056888  0  0  0.095559  0.084007  0  1.057013  0
H  H54  1  0.98125065  0.42644151  0.22760679  1  0  0.074195  0  0.992932  0  0  0.085453  0  1.056974  0  0  0.087535  0  1.05694  0  0  0.095545  0.083952  0  1.057065  0
H  H55  1  0.09703111  0.75206310  0.73277932  1  0  0.081512  0  0.973769  0  0  0.090166  0  1.040932  0  0  0.092961  0  1.040157  0  0  0.085433  0.088127  0  1.041601  0
H  H56  1  0.90297181  0.24793643  0.26722261  1  0  0.081556  0  0.97373  0  0  0.090241  0  1.040864  0  0  0.09302  0  1.040103  0  0  0.085433  0.0882  0  1.041536  0
H  H57  1  0.37425024  0.79237472  0.79020006  1  0  0.079855  0  0.967981  0  0  0.088045  0  1.034474  0  0  0.090587  0  1.033836  0  0  0.089776  0.086213  0  1.03497  0
H  H58  1  0.62575389  0.20762633  0.20979994  1  0  0.079863  0  0.967998  0  0  0.088059  0  1.034488  0  0  0.0906  0  1.033856  0  0  0.089786  0.086228  0  1.034984  0
H  H59  1  0.56638248  0.65225758  0.89111025  1  0  0.098702  0  0.967459  0  0  0.107755  0  1.028498  0  0  0.111232  0  1.026491  0  0  0.100303  0.105203  0  1.030103  0
H  H60  1  0.43362165  0.34774348  0.10888976  1  0  0.098697  0  0.967439  0  0  0.107769  0  1.028459  0  0  0.111241  0  1.026455  0  0  0.10031  0.105216  0  1.030065  0
H  H61  1  0.48806482  0.47360762  0.92966468  1  0  0.073913  0  0.97917  0  0  0.084993  0  1.045795  0  0  0.087132  0  1.045341  0  0  0.099796  0.083469  0  1.046136  0
H  H62  1  0.51193932  0.52639342  0.07033672  1  0  0.073935  0  0.97922  0  0  0.085075  0  1.045768  0  0  0.087219  0  1.045301  0  0  0.099829  0.083557  0  1.046088  0
C  C63  1  0.41933552  0.05469876  0.70154432  1  0  0.122066  0  3.739585  0  0  0.090418  0  3.993061  0  0  0.098053  0  4.010408  0  0  0.038944  0.085469  0  3.981269  0
C  C64  1  0.58066242  0.94529700  0.29845620  1  0  0.122016  0  3.73964  0  0  0.090393  0  3.99311  0  0  0.098016  0  4.010468  0  0  0.038932  0.085445  0  3.981317  0
C  C65  1  0.33832391  0.05436304  0.78932403  1  0  -0.159243  0  3.698437  0  0  -0.174184  0  3.939726  0  0  -0.180888  0  3.958465  0  0  -0.080112  -0.169937  0  3.927214  0
C  C66  1  0.66167136  0.94563501  0.21067510  1  0  -0.159263  0  3.698424  0  0  -0.174251  0  3.93969  0  0  -0.180956  0  3.95843  0  0  -0.080152  -0.170002  0  3.927176  0
C  C67  1  0.17414337  0.01418429  0.81408409  1  0  0.118993  0  3.76722  0  0  0.130842  0  3.997347  0  0  0.136191  0  4.017703  0  0  0.017066  0.127466  0  3.983411  0
C  C68  1  0.82585184  0.98581527  0.18591524  1  0  0.118944  0  3.767315  0  0  0.130851  0  3.997379  0  0  0.1362  0  4.017735  0  0  0.017078  0.127476  0  3.983447  0
C  C69  1  0.09776472  0.97822700  0.74690021  1  0  -0.166117  0  3.703819  0  0  -0.181098  0  3.94402  0  0  -0.188839  0  3.964264  0  0  -0.083737  -0.176098  0  3.930502  0
C  C70  1  0.90223183  0.02177105  0.25309889  1  0  -0.166139  0  3.7039  0  0  -0.181136  0  3.944068  0  0  -0.188879  0  3.964316  0  0  -0.083783  -0.176139  0  3.930553  0
C  C71  1  0.18673899  0.98287562  0.65999662  1  0  0.130376  0  3.722586  0  0  0.100417  0  3.973581  0  0  0.107368  0  3.992282  0  0  0.041229  0.095946  0  3.960852  0
C  C72  1  0.81325898  0.01711939  0.34000416  1  0  0.130291  0  3.722697  0  0  0.100344  0  3.97372  0  0  0.107296  0  3.992415  0  0  0.041207  0.095867  0  3.961013  0
C  C73  1  0.08553887  0.00758907  0.90886337  1  0  -0.04138  0  3.70867  0  0  -0.037182  0  3.947119  0  0  -0.038989  0  3.969062  0  0  -0.00187  -0.035929  0  3.932168  0
C  C74  1  0.91445762  0.99241049  0.09113593  1  0  -0.041295  0  3.708678  0  0  -0.037115  0  3.947124  0  0  -0.038916  0  3.969071  0  0  -0.001827  -0.035878  0  3.932159  0
C  C75  1  0.93141857  0.06412071  0.90853563  1  0  0.029361  0  3.758384  0  0  0.038919  0  3.988172  0  0  0.038632  0  4.012224  0  0  -0.001815  0.039088  0  3.971913  0
C  C76  1  0.06857792  0.93587885  0.09146297  1  0  0.029455  0  3.758226  0  0  0.039006  0  3.988013  0  0  0.0387  0  4.01209  0  0  -0.001705  0.039229  0  3.971685  0
C  C77  1  0.15547145  0.94324389  0.99868630  1  0  0.022119  0  3.772361  0  0  0.031275  0  4.006082  0  0  0.031054  0  4.030136  0  0  -0.002652  0.031442  0  3.989771  0
C  C78  1  0.84452376  0.05675568  0.00131233  1  0  0.022072  0  3.772483  0  0  0.03121  0  4.006236  0  0  0.030985  0  4.030284  0  0  -0.002663  0.031392  0  3.98994  0
C  C79  1  0.85991674  0.13137561  0.81901331  1  0  -0.112687  0  3.742983  0  0  -0.129789  0  3.98791  0  0  -0.132593  0  4.009353  0  0  -0.092012  -0.127816  0  3.973307  0
C  C80  1  0.14008473  0.86862773  0.18098531  1  0  -0.112781  0  3.742952  0  0  -0.129871  0  3.98789  0  0  -0.132666  0  4.009335  0  0  -0.092099  -0.127914  0  3.973276  0
C  C81  1  0.71271185  0.18770886  0.82031583  1  0  -0.050119  0  3.764489  0  0  -0.065343  0  4.014868  0  0  -0.066464  0  4.035206  0  0  -0.088657  -0.064468  0  4.000889  0
C  C82  1  0.28729089  0.81229448  0.17968206  1  0  -0.050112  0  3.764237  0  0  -0.065319  0  4.014611  0  0  -0.066438  0  4.034948  0  0  -0.088659  -0.064445  0  4.000636  0
C  C83  1  0.62852646  0.18171230  0.91120887  1  0  -0.063842  0  3.762464  0  0  -0.077126  0  4.013251  0  0  -0.078166  0  4.032505  0  0  -0.088966  -0.076252  0  4.000083  0
C  C84  1  0.37147244  0.81829105  0.08878842  1  0  -0.063858  0  3.762397  0  0  -0.077097  0  4.013201  0  0  -0.078152  0  4.032447  0  0  -0.088979  -0.076224  0  4.000032  0
C  C85  1  0.30679998  0.88165326  0.00105075  1  0  -0.113708  0  3.740868  0  0  -0.131618  0  3.983912  0  0  -0.134751  0  4.005793  0  0  -0.090664  -0.129433  0  3.968964  0
C  C86  1  0.69319516  0.11834782  0.99894738  1  0  -0.113656  0  3.740828  0  0  -0.131565  0  3.983897  0  0  -0.134696  0  4.005771  0  0  -0.090671  -0.129379  0  3.968946  0
C  C87  1  0.59031787  0.23994524  0.46191485  1  0  0.128732  0  3.717306  0  0  0.099829  0  3.964117  0  0  0.106844  0  3.98233  0  0  0.038176  0.095338  0  3.951739  0
C  C88  1  0.40968257  0.76005204  0.53808511  1  0  0.128651  0  3.717295  0  0  0.099759  0  3.964105  0  0  0.106773  0  3.982319  0  0  0.038161  0.095285  0  3.951739  0
C  C89  1  0.66942651  0.32653959  0.46218607  1  0  -0.158538  0  3.701721  0  0  -0.173792  0  3.943586  0  0  -0.18106  0  3.963871  0  0  -0.083048  -0.169166  0  3.930027  0
C  C90  1  0.33057006  0.67345844  0.53781512  1  0  -0.158529  0  3.701665  0  0  -0.173778  0  3.943522  0  0  -0.181043  0  3.963805  0  0  -0.083016  -0.169152  0  3.929959  0
C  C91  1  0.83487871  0.31894217  0.49899510  1  0  0.116124  0  3.7668  0  0  0.126899  0  3.998591  0  0  0.131944  0  4.019462  0  0  0.015646  0.123714  0  3.984337  0
C  C92  1  0.16511906  0.68105739  0.50100417  1  0  0.116154  0  3.766786  0  0  0.126936  0  3.998573  0  0  0.13198  0  4.019445  0  0  0.015624  0.123752  0  3.984318  0
C  C93  1  0.91333976  0.22211361  0.53382425  1  0  -0.162355  0  3.71219  0  0  -0.178994  0  3.959152  0  0  -0.1861  0  3.978661  0  0  -0.084095  -0.174492  0  3.946183  0
C  C94  1  0.08666183  0.77788671  0.46617329  1  0  -0.162443  0  3.712128  0  0  -0.179078  0  3.959098  0  0  -0.186186  0  3.978609  0  0  -0.084099  -0.174569  0  3.946122  0
C  C95  1  0.82511094  0.13914695  0.53112903  1  0  0.117758  0  3.744384  0  0  0.087502  0  3.997838  0  0  0.094485  0  4.015754  0  0  0.034369  0.082983  0  3.98575  0
C  C96  1  0.17489068  0.86085260  0.46887015  1  0  0.11774  0  3.744399  0  0  0.087485  0  3.997843  0  0  0.094465  0  4.015767  0  0  0.034368  0.082965  0  3.985757  0
C  C97  1  0.92039534  0.41056501  0.50024003  1  0  -0.044545  0  3.714697  0  0  -0.038744  0  3.95092  0  0  -0.040261  0  3.972372  0  0  -0.002605  -0.03771  0  3.936302  0
C  C98  1  0.07960365  0.58943608  0.49975662  1  0  -0.044557  0  3.714635  0  0  -0.038773  0  3.950875  0  0  -0.040292  0  3.972331  0  0  -0.002628  -0.037731  0  3.93625  0
C  C99  1  0.84567840  0.46680796  0.55678526  1  0  0.021696  0  3.776304  0  0  0.031857  0  4.007592  0  0  0.031843  0  4.031285  0  0  -0.005115  0.031895  0  3.991501  0
C  C100  1  0.15432184  0.53319388  0.44321180  1  0  0.021596  0  3.776298  0  0  0.031775  0  4.007569  0  0  0.03176  0  4.031263  0  0  -0.005165  0.031803  0  3.991491  0
C  C101  1  0.07362870  0.44217493  0.44377287  1  0  0.025957  0  3.766869  0  0  0.035416  0  3.996505  0  0  0.035008  0  4.020639  0  0  -0.003258  0.035725  0  3.980113  0
C  C102  1  0.92637025  0.55782692  0.55622353  1  0  0.025952  0  3.766835  0  0  0.035413  0  3.996493  0  0  0.035003  0  4.02063  0  0  -0.003264  0.03572  0  3.980093  0
C  C103  1  0.69581007  0.43455671  0.61853747  1  0  -0.118363  0  3.753037  0  0  -0.13934  0  4.001197  0  0  -0.142359  0  4.021942  0  0  -0.093834  -0.137241  0  3.987044  0
C  C104  1  0.30419407  0.56544435  0.38146254  1  0  -0.118296  0  3.753037  0  0  -0.139285  0  4.001189  0  0  -0.142301  0  4.021934  0  0  -0.093791  -0.137182  0  3.987037  0
C  C105  1  0.62935863  0.48707594  0.67685511  1  0  -0.056806  0  3.760838  0  0  -0.068847  0  4.006547  0  0  -0.069514  0  4.02625  0  0  -0.088868  -0.068241  0  3.993027  0
C  C106  1  0.37064813  0.51292358  0.32314673  1  0  -0.056701  0  3.760779  0  0  -0.068739  0  4.006488  0  0  -0.069401  0  4.026192  0  0  -0.088868  -0.068133  0  3.992964  0
C  C107  1  0.70712490  0.57717069  0.67493958  1  0  -0.057118  0  3.75565  0  0  -0.06909  0  3.999451  0  0  -0.070713  0  4.01995  0  0  -0.089494  -0.067899  0  3.985444  0
C  C108  1  0.29288187  0.42282884  0.32506156  1  0  -0.057196  0  3.755747  0  0  -0.069144  0  3.999509  0  0  -0.070767  0  4.02001  0  0  -0.089507  -0.06794  0  3.985506  0
C  C109  1  0.14946026  0.38866308  0.38377213  1  0  -0.118584  0  3.752127  0  0  -0.134762  0  3.99318  0  0  -0.137516  0  4.013607  0  0  -0.09451  -0.132849  0  3.979346  0
C  C110  1  0.85054254  0.61133875  0.61622557  1  0  -0.118587  0  3.752093  0  0  -0.134807  0  3.993126  0  0  -0.137559  0  4.013552  0  0  -0.094518  -0.13288  0  3.979311  0
C  C111  1  0.21517073  0.33948055  0.70714800  1  0  -0.00422  0  3.683279  0  0  -0.096512  0  3.948802  0  0  -0.089609  0  3.953684  0  0  -0.136477  -0.101043  0  3.945319  0
C  C112  1  0.78482968  0.66051748  0.29285310  1  0  -0.004177  0  3.683213  0  0  -0.09645  0  3.94875  0  0  -0.089538  0  3.953622  0  0  -0.136458  -0.100982  0  3.945268  0
C  C113  1  0.84787132  0.39935395  0.92943588  1  0  -0.009678  0  3.68094  0  0  -0.10351  0  3.943553  0  0  -0.097134  0  3.949583  0  0  -0.136791  -0.107628  0  3.93934  0
C  C114  1  0.15213151  0.60064785  0.07056529  1  0  -0.009588  0  3.680864  0  0  -0.103424  0  3.943465  0  0  -0.097042  0  3.94949  0  0  -0.136785  -0.107546  0  3.939251  0
C  C115  1  0.20902761  0.20878004  0.04541216  1  0  -0.011261  0  3.665845  0  0  -0.101271  0  3.923728  0  0  -0.094338  0  3.927514  0  0  -0.135956  -0.105808  0  3.921088  0
C  C116  1  0.79097270  0.79122026  0.95458819  1  0  -0.011268  0  3.665874  0  0  -0.10126  0  3.92374  0  0  -0.094312  0  3.927517  0  0  -0.135967  -0.105798  0  3.921097  0
C  C117  1  0.24781037  0.50985945  0.85349257  1  0  -0.408537  0  3.824671  0  0  -0.355835  0  4.068911  0  0  -0.3682  0  4.091739  0  0  -0.06558  -0.347351  0  4.053447  0
C  C118  1  0.75219380  0.49014084  0.14650908  1  0  -0.408631  0  3.824861  0  0  -0.355974  0  4.069173  0  0  -0.368329  0  4.091992  0  0  -0.065713  -0.347488  0  4.053701  0
C  C119  1  0.13948295  0.59018351  0.79827772  1  0  -0.034172  0  3.799548  0  0  -0.051612  0  4.033142  0  0  -0.051616  0  4.056485  0  0  -0.086913  -0.051464  0  4.0172  0
C  C120  1  0.86052122  0.40981678  0.20172463  1  0  -0.03397  0  3.799395  0  0  -0.05135  0  4.03296  0  0  -0.051346  0  4.056287  0  0  -0.086799  -0.051204  0  4.017026  0
C  C121  1  0.18375225  0.69126881  0.77577030  1  0  -0.079541  0  3.760838  0  0  -0.087373  0  4.002823  0  0  -0.091032  0  4.025355  0  0  -0.098158  -0.084875  0  3.987539  0
C  C122  1  0.81625192  0.30873148  0.22423065  1  0  -0.079711  0  3.760696  0  0  -0.087583  0  4.002709  0  0  -0.091228  0  4.025246  0  0  -0.098228  -0.085084  0  3.987427  0
C  C123  1  0.33781440  0.71377099  0.80849559  1  0  -0.062751  0  3.767307  0  0  -0.075655  0  4.012505  0  0  -0.076383  0  4.033641  0  0  -0.092112  -0.075035  0  3.998125  0
C  C124  1  0.66218973  0.28623006  0.19150442  1  0  -0.062805  0  3.767341  0  0  -0.075734  0  4.012582  0  0  -0.076465  0  4.033711  0  0  -0.09214  -0.075114  0  3.998203  0
C  C125  1  0.44703882  0.63510423  0.86406522  1  0  -0.087448  0  3.752186  0  0  -0.094136  0  3.993808  0  0  -0.09734  0  4.014415  0  0  -0.0933  -0.091957  0  3.979875  0
C  C126  1  0.55296528  0.36489758  0.13593523  1  0  -0.087325  0  3.752085  0  0  -0.094009  0  3.993681  0  0  -0.097214  0  4.014303  0  0  -0.093258  -0.09183  0  3.979749  0
C  C127  1  0.40214705  0.53428934  0.88606483  1  0  -0.024012  0  3.786141  0  0  -0.042421  0  4.023014  0  0  -0.042546  0  4.046365  0  0  -0.081197  -0.0422  0  4.007103  0
C  C128  1  0.59785837  0.46571170  0.11393723  1  0  -0.024038  0  3.786257  0  0  -0.04247  0  4.02311  0  0  -0.042588  0  4.046453  0  0  -0.081172  -0.042244  0  4.0072  0
I  I129  1  0.25428124  0.13333155  0.35565844  1  0  -0.547038  0  0.939051  0  0  -0.502004  0  1.240293  0  0  -0.519363  0  1.220099  0  0  -0.252622  -0.489117  0  1.253873  0
I  I130  1  0.74571929  0.86666347  0.64434089  1  0  -0.547032  0  0.939057  0  0  -0.502028  0  1.240354  0  0  -0.519389  0  1.220169  0  0  -0.252622  -0.489137  0  1.253929  0
N  N131  1  0.34506820  0.01967336  0.63769071  1  0  -0.323774  0  3.30138  0  0  -0.244424  0  3.557183  0  0  -0.264435  0  3.57825  0  0  -0.334599  -0.230898  0  3.542591  0
N  N132  1  0.65493111  0.98032012  0.36231055  1  0  -0.323731  0  3.301463  0  0  -0.244382  0  3.557254  0  0  -0.264393  0  3.578326  0  0  -0.334542  -0.230855  0  3.542652  0
N  N133  1  0.66620819  0.14715907  0.49604138  1  0  -0.326647  0  3.240528  0  0  -0.248903  0  3.493982  0  0  -0.268226  0  3.514366  0  0  -0.329657  -0.235822  0  3.479839  0
N  N134  1  0.33379222  0.85283896  0.50395903  1  0  -0.326642  0  3.240613  0  0  -0.248903  0  3.494055  0  0  -0.268228  0  3.514444  0  0  -0.329675  -0.235822  0  3.479906  0
O  O135  1  0.27519662  0.32368749  0.80390039  1  0  -0.592248  0  2.205868  0  0  -0.500022  0  2.464341  0  0  -0.521477  0  2.454009  0  0  -0.276436  -0.484788  0  2.470976  0
O  O136  1  0.72480370  0.67631281  0.19610065  1  0  -0.592254  0  2.205839  0  0  -0.500033  0  2.46433  0  0  -0.521485  0  2.454006  0  0  -0.276472  -0.4848  0  2.470966  0
O  O137  1  0.97721125  0.36839130  0.87159081  1  0  -0.590271  0  2.218473  0  0  -0.494498  0  2.471194  0  0  -0.516059  0  2.463026  0  0  -0.274962  -0.479447  0  2.476573  0
O  O138  1  0.02279029  0.63161051  0.12840970  1  0  -0.590309  0  2.218475  0  0  -0.494509  0  2.471201  0  0  -0.516058  0  2.463033  0  0  -0.274972  -0.479445  0  2.476568  0
O  O139  1  0.25699193  0.31117488  0.99136462  1  0  -0.588428  0  2.20675  0  0  -0.494563  0  2.4611  0  0  -0.515915  0  2.450157  0  0  -0.272617  -0.47944  0  2.468192  0
O  O140  1  0.74300967  0.68882542  0.00863569  1  0  -0.588394  0  2.206759  0  0  -0.494526  0  2.461121  0  0  -0.515877  0  2.450186  0  0  -0.272596  -0.479404  0  2.468215  0
