# generated using pymatgen
data_KH7C15N4O
_symmetry_space_group_name_H-M   'P 1'
_cell_length_a   8.03456372
_cell_length_b   9.69464622
_cell_length_c   17.70856870
_cell_angle_alpha   90.00031080
_cell_angle_beta   91.01842678
_cell_angle_gamma   89.99891699
_symmetry_Int_Tables_number   1
_chemical_formula_structural   KH7C15N4O
_chemical_formula_sum   'K4 H28 C60 N16 O4'
_cell_volume   1379.14241348
_cell_formula_units_Z   4
loop_
 _symmetry_equiv_pos_site_id
 _symmetry_equiv_pos_as_xyz
  1  'x, y, z'
loop_
 _atom_site_type_symbol
 _atom_site_label
 _atom_site_symmetry_multiplicity
 _atom_site_fract_x
 _atom_site_fract_y
 _atom_site_fract_z
 _atom_site_occupancy
 _atom_site_hle17_bader_spin_density
 _atom_site_hle17_ddec_charge
 _atom_site_hle17_ddec_spin_density
 _atom_site_hle17_ddec_sum_bond_order
 _atom_site_hle17_magmom
 _atom_site_hse06_10hf_bader_spin_density
 _atom_site_hse06_10hf_ddec_charge
 _atom_site_hse06_10hf_ddec_spin_density
 _atom_site_hse06_10hf_ddec_sum_bond_order
 _atom_site_hse06_10hf_magmom
 _atom_site_hse06_bader_spin_density
 _atom_site_hse06_ddec_charge
 _atom_site_hse06_ddec_spin_density
 _atom_site_hse06_ddec_sum_bond_order
 _atom_site_hse06_magmom
 _atom_site_pbe_bader_spin_density
 _atom_site_pbe_cm5_charge
 _atom_site_pbe_ddec_charge
 _atom_site_pbe_ddec_spin_density
 _atom_site_pbe_ddec_sum_bond_order
 _atom_site_pbe_magmom
K  K0  1  0.96529220  0.63292765  0.90005676  1  0  0.929808  0  0.434676  0  0  0.877983  0  0.623068  0  0  0.891229  0  0.602418  0  0  0.819046  0.868114  0  0.637981  0
K  K1  1  0.53469294  0.13292843  0.09994619  1  0  0.92981  0  0.434676  0  0  0.877988  0  0.623038  0  0  0.891235  0  0.602386  0  0  0.819025  0.868104  0  0.637952  0
K  K2  1  0.03468949  0.36706674  0.09993521  1  0  0.929838  0  0.434623  0  0  0.878002  0  0.623027  0  0  0.891247  0  0.602379  0  0  0.819024  0.868121  0  0.63794  0
K  K3  1  0.46531143  0.86708452  0.90007133  1  0  0.929807  0  0.434651  0  0  0.877971  0  0.623054  0  0  0.891217  0  0.602405  0  0  0.819034  0.868092  0  0.637967  0
H  H4  1  0.21830221  0.62397830  0.53099962  1  0  0.113378  0  0.949409  0  0  0.134108  0  1.011802  0  0  0.135096  0  1.012373  0  0  0.092884  0.13349  0  1.011306  0
H  H5  1  0.28170540  0.12398813  0.46900172  1  0  0.113415  0  0.949447  0  0  0.134137  0  1.011833  0  0  0.135127  0  1.012403  0  0  0.092902  0.133527  0  1.011329  0
H  H6  1  0.78170194  0.37602125  0.46899812  1  0  0.113373  0  0.94946  0  0  0.134098  0  1.011849  0  0  0.135087  0  1.01242  0  0  0.092882  0.133482  0  1.011352  0
H  H7  1  0.71829755  0.87602070  0.53100054  1  0  0.113372  0  0.949444  0  0  0.134106  0  1.01182  0  0  0.135095  0  1.01239  0  0  0.092886  0.133493  0  1.011317  0
H  H8  1  0.23615114  0.78886379  0.48671852  1  0  0.115262  0  0.96359  0  0  0.133785  0  1.02694  0  0  0.135269  0  1.026905  0  0  0.088969  0.132688  0  1.02704  0
H  H9  1  0.26384901  0.28887434  0.51328327  1  0  0.115237  0  0.963656  0  0  0.133792  0  1.026973  0  0  0.135275  0  1.026939  0  0  0.088971  0.132693  0  1.027075  0
H  H10  1  0.76385301  0.21113576  0.51327923  1  0  0.115357  0  0.963542  0  0  0.133844  0  1.026927  0  0  0.135328  0  1.026892  0  0  0.089008  0.132747  0  1.027027  0
H  H11  1  0.73615146  0.71113449  0.48671898  1  0  0.115272  0  0.963607  0  0  0.133791  0  1.026955  0  0  0.135274  0  1.026923  0  0  0.088965  0.132695  0  1.027054  0
H  H12  1  0.05638299  0.68592996  0.47104683  1  0  0.128527  0  0.961934  0  0  0.146198  0  1.029713  0  0  0.147652  0  1.028682  0  0  0.094056  0.145196  0  1.030388  0
H  H13  1  0.44362072  0.18593784  0.52895411  1  0  0.128505  0  0.962005  0  0  0.146198  0  1.02975  0  0  0.147646  0  1.028725  0  0  0.094062  0.145195  0  1.030427  0
H  H14  1  0.94362116  0.31407062  0.52895148  1  0  0.128541  0  0.961928  0  0  0.146226  0  1.029681  0  0  0.14768  0  1.02865  0  0  0.09407  0.145224  0  1.030358  0
H  H15  1  0.55637974  0.81407099  0.47104757  1  0  0.128555  0  0.961918  0  0  0.146237  0  1.029684  0  0  0.147691  0  1.028651  0  0  0.094066  0.145235  0  1.030357  0
H  H16  1  0.82975456  0.68621192  0.72993476  1  0  0.097592  0  0.978507  0  0  0.101895  0  1.051503  0  0  0.105549  0  1.047997  0  0  0.106403  0.099295  0  1.054059  0
H  H17  1  0.67023928  0.18620916  0.27006444  1  0  0.097628  0  0.978483  0  0  0.101915  0  1.051483  0  0  0.105569  0  1.047976  0  0  0.106391  0.099312  0  1.054044  0
H  H18  1  0.17024336  0.31378968  0.27006239  1  0  0.097555  0  0.978582  0  0  0.101854  0  1.051577  0  0  0.105507  0  1.04807  0  0  0.106375  0.099255  0  1.054129  0
H  H19  1  0.32976494  0.81379554  0.72993952  1  0  0.097593  0  0.978458  0  0  0.101879  0  1.051458  0  0  0.105534  0  1.047953  0  0  0.106351  0.099276  0  1.054024  0
H  H20  1  0.02248797  0.08819924  0.67153467  1  0  0.081469  0  0.990131  0  0  0.088788  0  1.057971  0  0  0.089935  0  1.059106  0  0  0.09719  0.087919  0  1.05726  0
H  H21  1  0.47751051  0.58820294  0.32846821  1  0  0.081468  0  0.990126  0  0  0.088748  0  1.058007  0  0  0.089909  0  1.059127  0  0  0.097198  0.087882  0  1.05729  0
H  H22  1  0.97751243  0.91180339  0.32846192  1  0  0.081503  0  0.990113  0  0  0.088818  0  1.057957  0  0  0.089971  0  1.059085  0  0  0.09719  0.087951  0  1.057244  0
H  H23  1  0.52249367  0.41180176  0.67153236  1  0  0.081444  0  0.990094  0  0  0.088735  0  1.057966  0  0  0.089899  0  1.059083  0  0  0.097183  0.08787  0  1.057248  0
H  H24  1  0.15142232  0.98850799  0.55925072  1  0  0.099698  0  0.951528  0  0  0.113527  0  1.006521  0  0  0.116185  0  1.006531  0  0  0.104495  0.111485  0  1.006904  0
H  H25  1  0.34857704  0.48851649  0.44075164  1  0  0.099757  0  0.951428  0  0  0.113527  0  1.006496  0  0  0.116185  0  1.006506  0  0  0.104507  0.111499  0  1.006862  0
H  H26  1  0.84857933  0.01149155  0.44074588  1  0  0.099741  0  0.951544  0  0  0.113546  0  1.006546  0  0  0.116203  0  1.006557  0  0  0.104498  0.111483  0  1.006952  0
H  H27  1  0.65142465  0.51149027  0.55924835  1  0  0.099766  0  0.951473  0  0  0.113545  0  1.006518  0  0  0.116202  0  1.006529  0  0  0.104515  0.111517  0  1.006884  0
H  H28  1  0.96842449  0.58593329  0.61960709  1  0  0.106368  0  0.950481  0  0  0.116055  0  1.01137  0  0  0.118895  0  1.010912  0  0  0.103804  0.113999  0  1.01186  0
H  H29  1  0.53157537  0.08593483  0.38039242  1  0  0.106298  0  0.950448  0  0  0.115982  0  1.011365  0  0  0.118822  0  1.010905  0  0  0.10377  0.113925  0  1.011857  0
H  H30  1  0.03157842  0.41406625  0.38039065  1  0  0.1064  0  0.95047  0  0  0.116087  0  1.011353  0  0  0.118918  0  1.010916  0  0  0.103801  0.114029  0  1.011847  0
H  H31  1  0.46842884  0.91407090  0.61961098  1  0  0.106357  0  0.950384  0  0  0.116041  0  1.011296  0  0  0.118875  0  1.010848  0  0  0.103799  0.113976  0  1.011796  0
C  C32  1  0.84191279  0.94529733  0.77842396  1  0  0.393991  0  3.728303  0  0  0.382371  0  3.985241  0  0  0.40377  0  3.98775  0  0  0.170557  0.367487  0  3.983551  0
C  C33  1  0.65807519  0.44529016  0.22157540  1  0  0.394096  0  3.728339  0  0  0.382554  0  3.985186  0  0  0.403907  0  3.987764  0  0  0.170737  0.367672  0  3.983495  0
C  C34  1  0.15807518  0.05470221  0.22157312  1  0  0.39414  0  3.728022  0  0  0.38238  0  3.985189  0  0  0.403899  0  3.987494  0  0  0.170713  0.367502  0  3.983497  0
C  C35  1  0.34192025  0.55470423  0.77842174  1  0  0.3941  0  3.728239  0  0  0.382546  0  3.985122  0  0  0.403912  0  3.987674  0  0  0.170705  0.367665  0  3.983431  0
C  C36  1  0.91735035  0.89384635  0.70948165  1  0  -0.070997  0  3.800081  0  0  -0.058358  0  4.039559  0  0  -0.070836  0  4.068683  0  0  -0.025661  -0.05027  0  4.020045  0
C  C37  1  0.58264627  0.39384517  0.29051931  1  0  -0.070969  0  3.800038  0  0  -0.058394  0  4.039518  0  0  -0.070859  0  4.068653  0  0  -0.025655  -0.050306  0  4.020004  0
C  C38  1  0.08264884  0.10615629  0.29051776  1  0  -0.070943  0  3.799978  0  0  -0.058312  0  4.039534  0  0  -0.070824  0  4.068626  0  0  -0.025671  -0.050225  0  4.020023  0
C  C39  1  0.41735417  0.60615747  0.70948011  1  0  -0.070954  0  3.80004  0  0  -0.05842  0  4.039583  0  0  -0.070889  0  4.068715  0  0  -0.025666  -0.050332  0  4.020071  0
C  C40  1  0.90170796  0.75204235  0.69288394  1  0  -0.040097  0  3.713976  0  0  -0.065046  0  3.965832  0  0  -0.061498  0  3.985658  0  0  -0.068901  -0.067192  0  3.95239  0
C  C41  1  0.59828812  0.25204212  0.30711547  1  0  -0.040133  0  3.714001  0  0  -0.065041  0  3.96583  0  0  -0.061493  0  3.985651  0  0  -0.068902  -0.067186  0  3.952386  0
C  C42  1  0.09829494  0.24795925  0.30711380  1  0  -0.040169  0  3.713989  0  0  -0.065078  0  3.965826  0  0  -0.06153  0  3.985655  0  0  -0.068922  -0.067222  0  3.952381  0
C  C43  1  0.40171359  0.74796258  0.69288735  1  0  -0.040205  0  3.713926  0  0  -0.065092  0  3.965737  0  0  -0.061547  0  3.985561  0  0  -0.068914  -0.067238  0  3.952292  0
C  C44  1  0.97784432  0.69649223  0.63040759  1  0  -0.127469  0  3.68784  0  0  -0.143366  0  3.93152  0  0  -0.151161  0  3.954863  0  0  -0.08256  -0.13807  0  3.915639  0
C  C45  1  0.52215304  0.19649484  0.36959279  1  0  -0.127412  0  3.687834  0  0  -0.143313  0  3.931472  0  0  -0.151107  0  3.954817  0  0  -0.082515  -0.138016  0  3.915588  0
C  C46  1  0.02215736  0.30350834  0.36959127  1  0  -0.127508  0  3.687813  0  0  -0.143443  0  3.931516  0  0  -0.151241  0  3.954855  0  0  -0.082539  -0.138144  0  3.915632  0
C  C47  1  0.47784992  0.80350986  0.63041003  1  0  -0.127383  0  3.687645  0  0  -0.14328  0  3.931303  0  0  -0.151073  0  3.954645  0  0  -0.082535  -0.137972  0  3.915422  0
C  C48  1  0.06877430  0.78024122  0.58094208  1  0  0.195914  0  3.709639  0  0  0.220013  0  3.94163  0  0  0.224631  0  3.964962  0  0  0.018142  0.217024  0  3.925544  0
C  C49  1  0.43122727  0.28024408  0.41905799  1  0  0.195959  0  3.709543  0  0  0.220082  0  3.941506  0  0  0.224702  0  3.964831  0  0  0.018108  0.217092  0  3.925422  0
C  C50  1  0.93123110  0.21975832  0.41905567  1  0  0.19595  0  3.709656  0  0  0.220096  0  3.941556  0  0  0.224717  0  3.964883  0  0  0.018084  0.217109  0  3.925461  0
C  C51  1  0.56877567  0.71975959  0.58094258  1  0  0.195901  0  3.709652  0  0  0.219998  0  3.941627  0  0  0.224618  0  3.964953  0  0  0.01811  0.217009  0  3.925543  0
C  C52  1  0.08102743  0.92204524  0.59676176  1  0  -0.140917  0  3.70971  0  0  -0.156831  0  3.951608  0  0  -0.163981  0  3.973797  0  0  -0.088418  -0.152246  0  3.936709  0
C  C53  1  0.41897219  0.42205433  0.40324041  1  0  -0.140983  0  3.7096  0  0  -0.156866  0  3.951508  0  0  -0.16402  0  3.973703  0  0  -0.088423  -0.152295  0  3.936604  0
C  C54  1  0.91897549  0.07795327  0.40323711  1  0  -0.140957  0  3.709743  0  0  -0.156831  0  3.951581  0  0  -0.163983  0  3.973774  0  0  -0.088428  -0.15223  0  3.936685  0
C  C55  1  0.58102951  0.57795450  0.59676071  1  0  -0.14104  0  3.709801  0  0  -0.156907  0  3.95168  0  0  -0.164058  0  3.973875  0  0  -0.088447  -0.152336  0  3.936778  0
C  C56  1  0.00858899  0.97837619  0.66035167  1  0  -0.045192  0  3.731682  0  0  -0.068393  0  3.982157  0  0  -0.066133  0  4.005049  0  0  -0.075114  -0.069253  0  3.966185  0
C  C57  1  0.49140936  0.47838041  0.33965065  1  0  -0.045197  0  3.731667  0  0  -0.068347  0  3.982136  0  0  -0.066097  0  4.005019  0  0  -0.075136  -0.069206  0  3.966167  0
C  C58  1  0.99141144  0.02162336  0.33964718  1  0  -0.045238  0  3.731655  0  0  -0.068442  0  3.982138  0  0  -0.066193  0  4.005035  0  0  -0.075091  -0.069298  0  3.966155  0
C  C59  1  0.50859606  0.52162635  0.66034936  1  0  -0.045099  0  3.731611  0  0  -0.068241  0  3.982072  0  0  -0.065995  0  4.004952  0  0  -0.075061  -0.069102  0  3.966104  0
C  C60  1  0.86856797  0.09470921  0.80229699  1  0  0.034252  0  3.707779  0  0  0.019301  0  3.95793  0  0  0.030393  0  3.972035  0  0  0.031738  0.012367  0  3.947944  0
C  C61  1  0.63142671  0.59470261  0.19770308  1  0  0.034502  0  3.708061  0  0  0.019452  0  3.958055  0  0  0.030545  0  3.972187  0  0  0.031816  0.012515  0  3.94807  0
C  C62  1  0.13142252  0.90528517  0.19770407  1  0  0.0344  0  3.707915  0  0  0.019511  0  3.958117  0  0  0.03058  0  3.972181  0  0  0.031791  0.012573  0  3.948129  0
C  C63  1  0.36857993  0.40528971  0.80229468  1  0  0.034316  0  3.707992  0  0  0.019312  0  3.958081  0  0  0.030414  0  3.972194  0  0  0.031738  0.012372  0  3.948094  0
C  C64  1  0.79440998  0.19857928  0.75800697  1  0  -0.149478  0  3.94104  0  0  -0.13394  0  4.187163  0  0  -0.145388  0  4.20623  0  0  -0.020312  -0.126212  0  4.17382  0
C  C65  1  0.70559602  0.69856782  0.24199121  1  0  -0.149671  0  3.941368  0  0  -0.133841  0  4.187034  0  0  -0.14528  0  4.206103  0  0  -0.020365  -0.126111  0  4.173692  0
C  C66  1  0.20557929  0.80141923  0.24199521  1  0  -0.149434  0  3.94114  0  0  -0.133845  0  4.187175  0  0  -0.145302  0  4.206263  0  0  -0.02025  -0.126113  0  4.173827  0
C  C67  1  0.29441685  0.30142141  0.75800715  1  0  -0.149688  0  3.941146  0  0  -0.13405  0  4.187118  0  0  -0.145498  0  4.206197  0  0  -0.020343  -0.126325  0  4.173776  0
C  C68  1  0.69569826  0.16715827  0.69326096  1  0  0.272185  0  3.821839  0  0  0.255637  0  4.098249  0  0  0.266417  0  4.117284  0  0  0.179874  0.248386  0  4.085407  0
C  C69  1  0.80432086  0.66714590  0.30673325  1  0  0.272037  0  3.821622  0  0  0.255391  0  4.097974  0  0  0.266167  0  4.117008  0  0  0.179823  0.248139  0  4.085131  0
C  C70  1  0.30430221  0.83284025  0.30674072  1  0  0.272207  0  3.821838  0  0  0.255644  0  4.098236  0  0  0.266422  0  4.117278  0  0  0.179862  0.248391  0  4.085394  0
C  C71  1  0.19570442  0.33284127  0.69326123  1  0  0.27216  0  3.822006  0  0  0.255569  0  4.098387  0  0  0.266346  0  4.117421  0  0  0.179808  0.248318  0  4.085545  0
C  C72  1  0.81725485  0.34060292  0.77262192  1  0  0.298181  0  3.823813  0  0  0.280909  0  4.098923  0  0  0.292883  0  4.118236  0  0  0.187256  0.272828  0  4.085893  0
C  C73  1  0.68275043  0.84059168  0.22737667  1  0  0.298342  0  3.823796  0  0  0.280988  0  4.098821  0  0  0.292958  0  4.118136  0  0  0.187315  0.272904  0  4.08579  0
C  C74  1  0.18274564  0.65939662  0.22738202  1  0  0.298015  0  3.823582  0  0  0.280729  0  4.098703  0  0  0.2927  0  4.118021  0  0  0.187164  0.272646  0  4.08567  0
C  C75  1  0.31724883  0.15938724  0.77262839  1  0  0.29846  0  3.823632  0  0  0.281167  0  4.098707  0  0  0.293136  0  4.118009  0  0  0.187366  0.273085  0  4.085683  0
C  C76  1  0.96370688  0.11248459  0.86935508  1  0  -0.156302  0  3.915459  0  0  -0.138534  0  4.157151  0  0  -0.151983  0  4.176905  0  0  -0.016163  -0.129671  0  4.143863  0
C  C77  1  0.53628368  0.61248088  0.13064671  1  0  -0.15649  0  3.915468  0  0  -0.138687  0  4.157112  0  0  -0.152124  0  4.176841  0  0  -0.016154  -0.129819  0  4.143826  0
C  C78  1  0.03628116  0.88750980  0.13064879  1  0  -0.15651  0  3.915266  0  0  -0.138886  0  4.1572  0  0  -0.152326  0  4.176917  0  0  -0.016185  -0.130024  0  4.143919  0
C  C79  1  0.46372297  0.38751866  0.86935218  1  0  -0.156245  0  3.915452  0  0  -0.138434  0  4.157073  0  0  -0.151873  0  4.176784  0  0  -0.016059  -0.129567  0  4.143785  0
C  C80  1  0.99114020  0.23974655  0.90608391  1  0  0.332943  0  3.816448  0  0  0.315289  0  4.085662  0  0  0.329357  0  4.103889  0  0  0.199955  0.30566  0  4.073732  0
C  C81  1  0.50886489  0.73974806  0.09391608  1  0  0.33302  0  3.816361  0  0  0.315355  0  4.085556  0  0  0.329422  0  4.103779  0  0  0.199981  0.305723  0  4.073635  0
C  C82  1  0.00884404  0.76024474  0.09391372  1  0  0.33316  0  3.81665  0  0  0.315549  0  4.085894  0  0  0.329614  0  4.104124  0  0  0.200053  0.30592  0  4.073968  0
C  C83  1  0.49114304  0.26025767  0.90608564  1  0  0.332902  0  3.816413  0  0  0.315232  0  4.085638  0  0  0.329302  0  4.103865  0  0  0.199929  0.3056  0  4.073713  0
C  C84  1  0.04407850  0.99816741  0.90328290  1  0  0.321947  0  3.840626  0  0  0.303883  0  4.111587  0  0  0.317398  0  4.131001  0  0  0.196173  0.29461  0  4.09881  0
C  C85  1  0.45591690  0.49816567  0.09671947  1  0  0.322022  0  3.840612  0  0  0.303944  0  4.111552  0  0  0.317459  0  4.130965  0  0  0.196186  0.294666  0  4.09878  0
C  C86  1  0.95591448  0.00183007  0.09671761  1  0  0.322093  0  3.840501  0  0  0.304077  0  4.111491  0  0  0.317589  0  4.130915  0  0  0.196211  0.294801  0  4.098716  0
C  C87  1  0.54408602  0.50183697  0.90327940  1  0  0.322005  0  3.840595  0  0  0.303933  0  4.111533  0  0  0.317449  0  4.130948  0  0  0.196163  0.294655  0  4.098758  0
C  C88  1  0.14997070  0.71752522  0.51385880  1  0  -0.362882  0  3.717598  0  0  -0.442116  0  3.949226  0  0  -0.445194  0  3.958581  0  0  -0.24309  -0.439674  0  3.942465  0
C  C89  1  0.35003107  0.21753415  0.48614335  1  0  -0.362895  0  3.71774  0  0  -0.442182  0  3.949377  0  0  -0.445257  0  3.958736  0  0  -0.243099  -0.439746  0  3.942615  0
C  C90  1  0.85003346  0.28247535  0.48613951  1  0  -0.362986  0  3.71763  0  0  -0.442214  0  3.949237  0  0  -0.445292  0  3.95859  0  0  -0.243091  -0.439773  0  3.942477  0
C  C91  1  0.64996941  0.78247467  0.51385946  1  0  -0.36293  0  3.717673  0  0  -0.442184  0  3.949339  0  0  -0.445263  0  3.958694  0  0  -0.243086  -0.439743  0  3.942576  0
N  N92  1  0.61358269  0.14537858  0.63925579  1  0  -0.404882  0  2.5929  0  0  -0.377209  0  2.813765  0  0  -0.386615  0  2.825112  0  0  -0.299657  -0.370836  0  2.806311  0
N  N93  1  0.88644687  0.64537784  0.36073786  1  0  -0.40476  0  2.592671  0  0  -0.377049  0  2.813506  0  0  -0.386452  0  2.824852  0  0  -0.2996  -0.370684  0  2.80607  0
N  N94  1  0.38642026  0.85461993  0.36074534  1  0  -0.404924  0  2.592993  0  0  -0.377246  0  2.813864  0  0  -0.386656  0  2.825216  0  0  -0.299672  -0.370875  0  2.806414  0
N  N95  1  0.11359457  0.35462583  0.63925559  1  0  -0.4048  0  2.592943  0  0  -0.377131  0  2.813835  0  0  -0.386541  0  2.82519  0  0  -0.299592  -0.370754  0  2.806368  0
N  N96  1  0.83774085  0.45838122  0.78381970  1  0  -0.454106  0  2.641343  0  0  -0.430087  0  2.88473  0  0  -0.442594  0  2.898069  0  0  -0.375674  -0.421777  0  2.87624  0
N  N97  1  0.66226427  0.95837019  0.21618093  1  0  -0.454247  0  2.64129  0  0  -0.430224  0  2.8847  0  0  -0.442731  0  2.898036  0  0  -0.37575  -0.421914  0  2.876212  0
N  N98  1  0.16226705  0.54161316  0.21617920  1  0  -0.454007  0  2.640938  0  0  -0.429997  0  2.884353  0  0  -0.442503  0  2.897691  0  0  -0.375605  -0.421685  0  2.875859  0
N  N99  1  0.33772008  0.04162316  0.78382687  1  0  -0.454286  0  2.641495  0  0  -0.430255  0  2.884879  0  0  -0.442759  0  2.89821  0  0  -0.375746  -0.421947  0  2.876395  0
N  N100  1  0.01646484  0.34325169  0.93850533  1  0  -0.519823  0  2.630576  0  0  -0.494374  0  2.869896  0  0  -0.507448  0  2.879432  0  0  -0.43566  -0.485534  0  2.863836  0
N  N101  1  0.48355403  0.84325368  0.06150068  1  0  -0.519819  0  2.630642  0  0  -0.494371  0  2.869956  0  0  -0.507446  0  2.879494  0  0  -0.435696  -0.48553  0  2.863901  0
N  N102  1  0.98352442  0.65674579  0.06149685  1  0  -0.519945  0  2.631105  0  0  -0.494518  0  2.870454  0  0  -0.507592  0  2.879997  0  0  -0.43575  -0.48568  0  2.864399  0
N  N103  1  0.51645273  0.15675514  0.93850838  1  0  -0.519809  0  2.630487  0  0  -0.494389  0  2.869862  0  0  -0.507466  0  2.879403  0  0  -0.435698  -0.485544  0  2.863804  0
N  N104  1  0.11327664  0.90327855  0.93036869  1  0  -0.518304  0  2.642956  0  0  -0.493008  0  2.88133  0  0  -0.505879  0  2.891908  0  0  -0.432547  -0.484215  0  2.874568  0
N  N105  1  0.38671844  0.40327969  0.06963453  1  0  -0.518331  0  2.642902  0  0  -0.493034  0  2.881281  0  0  -0.505908  0  2.891862  0  0  -0.432588  -0.484235  0  2.874516  0
N  N106  1  0.88671254  0.09670965  0.06962615  1  0  -0.518405  0  2.642971  0  0  -0.493107  0  2.881327  0  0  -0.50598  0  2.891912  0  0  -0.432583  -0.484311  0  2.874562  0
N  N107  1  0.61328326  0.59672295  0.93036659  1  0  -0.518412  0  2.642917  0  0  -0.493119  0  2.881301  0  0  -0.505995  0  2.891883  0  0  -0.432641  -0.484324  0  2.87454  0
O  O108  1  0.76092210  0.87115004  0.82183805  1  0  -0.531072  0  1.954841  0  0  -0.488478  0  2.168003  0  0  -0.50594  0  2.163681  0  0  -0.326778  -0.475588  0  2.17056  0
O  O109  1  0.73905756  0.37114013  0.17815766  1  0  -0.531224  0  1.954835  0  0  -0.488672  0  2.167974  0  0  -0.506117  0  2.16367  0  0  -0.326947  -0.475779  0  2.17053  0
O  O110  1  0.23904465  0.12885363  0.17815383  1  0  -0.531222  0  1.954743  0  0  -0.488568  0  2.167974  0  0  -0.506071  0  2.16358  0  0  -0.326897  -0.475673  0  2.170527  0
O  O111  1  0.26092665  0.62884910  0.82183771  1  0  -0.531141  0  1.954732  0  0  -0.488574  0  2.167877  0  0  -0.506024  0  2.163569  0  0  -0.326838  -0.475683  0  2.170433  0
