# generated using pymatgen
data_KH5C6N(O2F)3
_symmetry_space_group_name_H-M   'P 1'
_cell_length_a   7.53406505
_cell_length_b   7.53409399
_cell_length_c   18.36076398
_cell_angle_alpha   89.99992308
_cell_angle_beta   89.99993141
_cell_angle_gamma   102.73610699
_symmetry_Int_Tables_number   1
_chemical_formula_structural   KH5C6N(O2F)3
_chemical_formula_sum   'K4 H20 C24 N4 O24 F12'
_cell_volume   1016.55769388
_cell_formula_units_Z   4
loop_
 _symmetry_equiv_pos_site_id
 _symmetry_equiv_pos_as_xyz
  1  'x, y, z'
loop_
 _atom_site_type_symbol
 _atom_site_label
 _atom_site_symmetry_multiplicity
 _atom_site_fract_x
 _atom_site_fract_y
 _atom_site_fract_z
 _atom_site_occupancy
 _atom_site_hle17_bader_spin_density
 _atom_site_hle17_ddec_charge
 _atom_site_hle17_ddec_spin_density
 _atom_site_hle17_ddec_sum_bond_order
 _atom_site_hle17_magmom
 _atom_site_hse06_10hf_bader_spin_density
 _atom_site_hse06_10hf_ddec_charge
 _atom_site_hse06_10hf_ddec_spin_density
 _atom_site_hse06_10hf_ddec_sum_bond_order
 _atom_site_hse06_10hf_magmom
 _atom_site_hse06_bader_spin_density
 _atom_site_hse06_ddec_charge
 _atom_site_hse06_ddec_spin_density
 _atom_site_hse06_ddec_sum_bond_order
 _atom_site_hse06_magmom
 _atom_site_pbe_bader_spin_density
 _atom_site_pbe_cm5_charge
 _atom_site_pbe_ddec_charge
 _atom_site_pbe_ddec_spin_density
 _atom_site_pbe_ddec_sum_bond_order
 _atom_site_pbe_magmom
K  K0  1  0.93151875  0.37702917  0.82699684  1  0  0.933737  0  0.429044  0  0  0.872944  0  0.621511  0  0  0.889478  0  0.596353  0  0  0.734242  0.860614  0  0.639412  0
K  K1  1  0.06849083  0.62297536  0.32699655  1  0  0.93376  0  0.429002  0  0  0.872919  0  0.621551  0  0  0.889471  0  0.596357  0  0  0.734256  0.860589  0  0.639452  0
K  K2  1  0.37703155  0.93151297  0.17300389  1  0  0.933729  0  0.429022  0  0  0.872914  0  0.621556  0  0  0.889427  0  0.5965  0  0  0.734246  0.860582  0  0.639458  0
K  K3  1  0.62296887  0.06848403  0.67300178  1  0  0.933782  0  0.428988  0  0  0.872952  0  0.621502  0  0  0.889461  0  0.596447  0  0  0.734247  0.860622  0  0.639404  0
H  H4  1  0.27346967  0.86536156  0.84564261  1  0  0.104797  0  0.919571  0  0  0.10784  0  0.982624  0  0  0.112267  0  0.978396  0  0  0.124591  0.104915  0  0.985411  0
H  H5  1  0.72653277  0.13464697  0.34564117  1  0  0.104673  0  0.919635  0  0  0.107808  0  0.982601  0  0  0.11222  0  0.978406  0  0  0.124559  0.104885  0  0.985389  0
H  H6  1  0.86535691  0.27347108  0.15435821  1  0  0.104789  0  0.919581  0  0  0.107822  0  0.982635  0  0  0.112222  0  0.978472  0  0  0.124557  0.104898  0  0.985424  0
H  H7  1  0.13463916  0.72653006  0.65435816  1  0  0.104698  0  0.919642  0  0  0.107828  0  0.98262  0  0  0.112228  0  0.978451  0  0  0.124583  0.104904  0  0.985407  0
H  H8  1  0.96537178  0.94690101  0.94602495  1  0  0.113577  0  0.939868  0  0  0.114463  0  1.004704  0  0  0.118302  0  1.00151  0  0  0.12532  0.111645  0  1.007292  0
H  H9  1  0.03462747  0.05310030  0.44602227  1  0  0.113556  0  0.939869  0  0  0.114438  0  1.004733  0  0  0.118273  0  1.001548  0  0  0.125332  0.111621  0  1.007318  0
H  H10  1  0.94689779  0.96537128  0.05397765  1  0  0.113432  0  0.939954  0  0  0.114399  0  1.004744  0  0  0.118233  0  1.001538  0  0  0.125333  0.111583  0  1.007328  0
H  H11  1  0.05309940  0.03462756  0.55397584  1  0  0.113552  0  0.939842  0  0  0.114449  0  1.004685  0  0  0.118286  0  1.001471  0  0  0.125308  0.111631  0  1.007273  0
H  H12  1  0.54804337  0.03243048  0.89578774  1  0  0.348809  0  0.885423  0  0  0.330676  0  0.949236  0  0  0.338295  0  0.943358  0  0  0.313078  0.325342  0  0.953307  0
H  H13  1  0.45195252  0.96756695  0.39578653  1  0  0.348742  0  0.885459  0  0  0.330645  0  0.949214  0  0  0.338264  0  0.943336  0  0  0.313094  0.325312  0  0.953286  0
H  H14  1  0.03242845  0.54804269  0.10421337  1  0  0.348793  0  0.885446  0  0  0.330625  0  0.949284  0  0  0.338244  0  0.943402  0  0  0.31306  0.325291  0  0.953357  0
H  H15  1  0.96756884  0.45195730  0.60421251  1  0  0.348772  0  0.885465  0  0  0.33068  0  0.949208  0  0  0.338298  0  0.943324  0  0  0.313093  0.325346  0  0.95328  0
H  H16  1  0.59293942  0.05838928  0.98886228  1  0  0.351089  0  0.899358  0  0  0.327081  0  0.970456  0  0  0.335965  0  0.96279  0  0  0.308025  0.320759  0  0.976033  0
H  H17  1  0.40706202  0.94161049  0.48886056  1  0  0.351086  0  0.89929  0  0  0.32703  0  0.970489  0  0  0.335914  0  0.962824  0  0  0.308006  0.320707  0  0.97607  0
H  H18  1  0.05838727  0.59293743  0.01113770  1  0  0.351108  0  0.899383  0  0  0.327115  0  0.970454  0  0  0.336085  0  0.96252  0  0  0.308036  0.320792  0  0.976036  0
H  H19  1  0.94161038  0.40706294  0.51113797  1  0  0.351117  0  0.899282  0  0  0.327057  0  0.970481  0  0  0.336027  0  0.962547  0  0  0.308012  0.320735  0  0.97606  0
H  H20  1  0.84385046  0.75759495  0.73695258  1  0  0.395958  0  0.903859  0  0  0.365418  0  0.9819  0  0  0.378679  0  0.9687  0  0  0.301081  0.356185  0  0.991004  0
H  H21  1  0.15615549  0.24240995  0.23695082  1  0  0.395948  0  0.903902  0  0  0.365387  0  0.981997  0  0  0.378667  0  0.968762  0  0  0.3011  0.356154  0  0.991099  0
H  H22  1  0.75758639  0.84384671  0.26304855  1  0  0.396028  0  0.903799  0  0  0.365437  0  0.981942  0  0  0.37872  0  0.968715  0  0  0.301125  0.356203  0  0.991048  0
H  H23  1  0.24240543  0.15614854  0.76304876  1  0  0.395948  0  0.90389  0  0  0.365439  0  0.981898  0  0  0.378706  0  0.968705  0  0  0.30109  0.356205  0  0.991004  0
C  C24  1  0.20825836  0.86913194  0.89859739  1  0  -0.003636  0  3.558048  0  0  -0.030025  0  3.817269  0  0  -0.028454  0  3.821064  0  0  -0.00058  -0.030995  0  3.814347  0
C  C25  1  0.79174046  0.13086684  0.39859593  1  0  -0.003576  0  3.558282  0  0  -0.029973  0  3.817283  0  0  -0.028398  0  3.821055  0  0  -0.000558  -0.030944  0  3.814364  0
C  C26  1  0.86913117  0.20825897  0.10140346  1  0  -0.003756  0  3.558158  0  0  -0.030119  0  3.817356  0  0  -0.028702  0  3.821562  0  0  -0.000577  -0.031088  0  3.814437  0
C  C27  1  0.13086480  0.79174103  0.60140337  1  0  -0.003748  0  3.558257  0  0  -0.030091  0  3.817301  0  0  -0.028658  0  3.821492  0  0  -0.000612  -0.031063  0  3.814381  0
C  C28  1  0.01387000  0.87957095  0.89985774  1  0  -0.014378  0  3.564803  0  0  -0.036209  0  3.815448  0  0  -0.035669  0  3.819621  0  0  0.000298  -0.036615  0  3.812983  0
C  C29  1  0.98613031  0.12043463  0.39985563  1  0  -0.014326  0  3.564681  0  0  -0.036263  0  3.815432  0  0  -0.035721  0  3.81963  0  0  0.000306  -0.036668  0  3.81297  0
C  C30  1  0.87956218  0.01386809  0.10014376  1  0  -0.014173  0  3.564531  0  0  -0.036243  0  3.815321  0  0  -0.035706  0  3.819501  0  0  0.000268  -0.036651  0  3.812856  0
C  C31  1  0.12043188  0.98612919  0.60014303  1  0  -0.014319  0  3.564683  0  0  -0.036228  0  3.815422  0  0  -0.035693  0  3.819596  0  0  0.00032  -0.036631  0  3.812958  0
C  C32  1  0.91055780  0.88486310  0.83018721  1  0  0.672733  0  3.818788  0  0  0.621344  0  4.126031  0  0  0.654723  0  4.115213  0  0  0.231053  0.598631  0  4.132816  0
C  C33  1  0.08944763  0.11513462  0.33018501  1  0  0.672632  0  3.819188  0  0  0.621479  0  4.125996  0  0  0.654827  0  4.11523  0  0  0.231053  0.598765  0  4.13279  0
C  C34  1  0.88486695  0.91055271  0.16981545  1  0  0.672758  0  3.818855  0  0  0.621569  0  4.125836  0  0  0.654931  0  4.115  0  0  0.231117  0.598859  0  4.132626  0
C  C35  1  0.11513628  0.08943886  0.66981467  1  0  0.672758  0  3.81883  0  0  0.621491  0  4.125838  0  0  0.654868  0  4.114983  0  0  0.23111  0.598778  0  4.132626  0
C  C36  1  0.32833751  0.93722469  0.96374551  1  0  0.625  0  3.851797  0  0  0.579252  0  4.144507  0  0  0.608773  0  4.142303  0  0  0.239584  0.559363  0  4.145313  0
C  C37  1  0.67165871  0.06277518  0.46374196  1  0  0.624794  0  3.851946  0  0  0.57926  0  4.144327  0  0  0.608791  0  4.142104  0  0  0.239647  0.559371  0  4.145135  0
C  C38  1  0.93722900  0.32834092  0.03625743  1  0  0.625079  0  3.851766  0  0  0.57941  0  4.144315  0  0  0.608859  0  4.142317  0  0  0.239647  0.55952  0  4.145122  0
C  C39  1  0.06277209  0.67166343  0.53625526  1  0  0.625142  0  3.851669  0  0  0.579387  0  4.144413  0  0  0.608816  0  4.142447  0  0  0.239693  0.559498  0  4.145224  0
C  C40  1  0.48639525  0.51083601  0.88108944  1  0  0.669378  0  3.636544  0  0  0.593674  0  3.988278  0  0  0.623375  0  3.957361  0  0  0.298514  0.573488  0  4.008444  0
C  C41  1  0.51361162  0.48916285  0.38109172  1  0  0.669003  0  3.637229  0  0  0.593739  0  3.988111  0  0  0.623513  0  3.957077  0  0  0.298536  0.573553  0  4.008285  0
C  C42  1  0.51083363  0.48638904  0.11890819  1  0  0.669521  0  3.636272  0  0  0.593689  0  3.988165  0  0  0.622531  0  3.958668  0  0  0.298536  0.573502  0  4.008333  0
C  C43  1  0.48916566  0.51360817  0.61891026  1  0  0.669169  0  3.636978  0  0  0.593758  0  3.988103  0  0  0.622674  0  3.958466  0  0  0.298499  0.573551  0  4.008293  0
C  C44  1  0.43345452  0.33112820  0.83643831  1  0  0.517557  0  4.004424  0  0  0.46607  0  4.310721  0  0  0.495858  0  4.302673  0  0  0.205412  0.446543  0  4.31465  0
C  C45  1  0.56655325  0.66886813  0.33643938  1  0  0.517348  0  4.004789  0  0  0.465959  0  4.310949  0  0  0.495723  0  4.302919  0  0  0.205363  0.446432  0  4.314882  0
C  C46  1  0.33112824  0.43344674  0.16356162  1  0  0.517319  0  4.004652  0  0  0.465923  0  4.31081  0  0  0.49535  0  4.303685  0  0  0.205355  0.446399  0  4.314737  0
C  C47  1  0.66887427  0.56654758  0.66356139  1  0  0.517371  0  4.004598  0  0  0.46603  0  4.310788  0  0  0.49546  0  4.303606  0  0  0.205358  0.446501  0  4.314733  0
N  N48  1  0.50198665  0.01332503  0.94791195  1  0  -0.67308  0  3.087925  0  0  -0.637162  0  3.323663  0  0  -0.660069  0  3.317392  0  0  -0.558275  -0.62121  0  3.327551  0
N  N49  1  0.49801392  0.98667627  0.44791016  1  0  -0.673041  0  3.088111  0  0  -0.637106  0  3.323667  0  0  -0.660012  0  3.317394  0  0  -0.558335  -0.621154  0  3.327553  0
N  N50  1  0.01332180  0.50198501  0.05208811  1  0  -0.673131  0  3.088129  0  0  -0.637198  0  3.32385  0  0  -0.660037  0  3.317394  0  0  -0.558306  -0.621247  0  3.327742  0
N  N51  1  0.98667406  0.49801383  0.55208885  1  0  -0.673187  0  3.087945  0  0  -0.637171  0  3.323598  0  0  -0.660006  0  3.317159  0  0  -0.558312  -0.621219  0  3.327488  0
O  O52  1  0.06766864  0.71093504  0.91480050  1  0  -0.301279  0  2.027343  0  0  -0.251005  0  2.256206  0  0  -0.263321  0  2.254464  0  0  -0.216176  -0.242054  0  2.256937  0
O  O53  1  0.93232836  0.28906775  0.41479942  1  0  -0.301225  0  2.027411  0  0  -0.250978  0  2.256277  0  0  -0.263291  0  2.25453  0  0  -0.216168  -0.242029  0  2.257014  0
O  O54  1  0.71092929  0.06767240  0.08519887  1  0  -0.301296  0  2.027352  0  0  -0.250939  0  2.256203  0  0  -0.263533  0  2.25496  0  0  -0.216166  -0.241992  0  2.25694  0
O  O55  1  0.28906601  0.93233038  0.58519972  1  0  -0.30121  0  2.027384  0  0  -0.250955  0  2.256234  0  0  -0.263554  0  2.25499  0  0  -0.216166  -0.242006  0  2.25697  0
O  O56  1  0.81722942  0.99842769  0.82047900  1  0  -0.593413  0  1.934499  0  0  -0.556066  0  2.164792  0  0  -0.575897  0  2.154678  0  0  -0.350362  -0.542136  0  2.171174  0
O  O57  1  0.18276412  0.00158228  0.32047627  1  0  -0.59343  0  1.935081  0  0  -0.556061  0  2.16511  0  0  -0.575878  0  2.155009  0  0  -0.350362  -0.542133  0  2.171497  0
O  O58  1  0.99841452  0.81723972  0.17952419  1  0  -0.593305  0  1.934831  0  0  -0.556075  0  2.165131  0  0  -0.575898  0  2.155019  0  0  -0.350375  -0.542149  0  2.171517  0
O  O59  1  0.00157557  0.18277083  0.67952178  1  0  -0.59364  0  1.934692  0  0  -0.556213  0  2.164739  0  0  -0.576042  0  2.154613  0  0  -0.350465  -0.542283  0  2.171126  0
O  O60  1  0.92967367  0.75784200  0.78312275  1  0  -0.588698  0  2.129948  0  0  -0.545885  0  2.366335  0  0  -0.568775  0  2.350947  0  0  -0.356164  -0.529783  0  2.376235  0
O  O61  1  0.07033004  0.24216543  0.28312158  1  0  -0.588792  0  2.129984  0  0  -0.545974  0  2.366242  0  0  -0.568849  0  2.350813  0  0  -0.356184  -0.529871  0  2.376144  0
O  O62  1  0.75782937  0.92966988  0.21687779  1  0  -0.588866  0  2.12972  0  0  -0.546092  0  2.366102  0  0  -0.568979  0  2.350703  0  0  -0.356253  -0.52999  0  2.376003  0
O  O63  1  0.24215966  0.07032419  0.71687804  1  0  -0.588706  0  2.130122  0  0  -0.545882  0  2.366356  0  0  -0.568763  0  2.35097  0  0  -0.356116  -0.529784  0  2.376267  0
O  O64  1  0.26392760  0.91555628  0.02640871  1  0  -0.606877  0  1.892511  0  0  -0.567955  0  2.117699  0  0  -0.58912  0  2.109361  0  0  -0.356743  -0.553207  0  2.123019  0
O  O65  1  0.73607102  0.08444267  0.52640763  1  0  -0.606736  0  1.892396  0  0  -0.567962  0  2.117513  0  0  -0.589132  0  2.109171  0  0  -0.356759  -0.553213  0  2.122832  0
O  O66  1  0.91555779  0.26392549  0.97359100  1  0  -0.606886  0  1.892299  0  0  -0.568002  0  2.117432  0  0  -0.589151  0  2.109063  0  0  -0.356747  -0.553253  0  2.122751  0
O  O67  1  0.08444075  0.73607298  0.47359282  1  0  -0.606879  0  1.892488  0  0  -0.568028  0  2.117742  0  0  -0.589169  0  2.109383  0  0  -0.356803  -0.55328  0  2.123065  0
O  O68  1  0.26376116  0.28320932  0.82262739  1  0  -0.608608  0  2.061191  0  0  -0.570257  0  2.295825  0  0  -0.594462  0  2.286272  0  0  -0.373091  -0.552879  0  2.300888  0
O  O69  1  0.73624503  0.71678570  0.32262672  1  0  -0.608411  0  2.061108  0  0  -0.570159  0  2.295864  0  0  -0.59437  0  2.286314  0  0  -0.373066  -0.55278  0  2.300926  0
O  O70  1  0.28321592  0.26375775  0.17737211  1  0  -0.608495  0  2.061331  0  0  -0.570127  0  2.295933  0  0  -0.594642  0  2.286947  0  0  -0.373059  -0.552751  0  2.300993  0
O  O71  1  0.71679215  0.73623788  0.67737285  1  0  -0.608454  0  2.061152  0  0  -0.570255  0  2.295907  0  0  -0.594769  0  2.286925  0  0  -0.373057  -0.552876  0  2.300973  0
O  O72  1  0.55811330  0.25769041  0.81671417  1  0  -0.601065  0  2.025293  0  0  -0.570469  0  2.261962  0  0  -0.591095  0  2.25443  0  0  -0.380906  -0.55597  0  2.26648  0
O  O73  1  0.44189868  0.74231281  0.31671908  1  0  -0.600896  0  2.025473  0  0  -0.570418  0  2.262146  0  0  -0.591037  0  2.25462  0  0  -0.380873  -0.55591  0  2.266647  0
O  O74  1  0.25768053  0.55810231  0.18328355  1  0  -0.601009  0  2.025255  0  0  -0.570432  0  2.261885  0  0  -0.591061  0  2.254465  0  0  -0.380903  -0.555925  0  2.266382  0
O  O75  1  0.74231172  0.44188782  0.68328608  1  0  -0.600929  0  2.02525  0  0  -0.570456  0  2.261902  0  0  -0.591077  0  2.254449  0  0  -0.380887  -0.555949  0  2.266414  0
F  F76  1  0.65492583  0.53593860  0.91158104  1  0  -0.247525  0  1.186213  0  0  -0.208646  0  1.352367  0  0  -0.217137  0  1.335959  0  0  -0.107474  -0.201667  0  1.363277  0
F  F77  1  0.34507988  0.46406150  0.41158288  1  0  -0.247466  0  1.186239  0  0  -0.208615  0  1.352209  0  0  -0.217121  0  1.335772  0  0  -0.107454  -0.201637  0  1.363121  0
F  F78  1  0.53592941  0.65491854  0.08841758  1  0  -0.247517  0  1.186056  0  0  -0.208628  0  1.352264  0  0  -0.217482  0  1.336045  0  0  -0.107461  -0.201649  0  1.363175  0
F  F79  1  0.46406410  0.34507606  0.58841975  1  0  -0.247534  0  1.186206  0  0  -0.208667  0  1.352253  0  0  -0.217537  0  1.336003  0  0  -0.107463  -0.201681  0  1.363169  0
F  F80  1  0.48959533  0.65567364  0.83511037  1  0  -0.259686  0  1.153795  0  0  -0.212529  0  1.310401  0  0  -0.227091  0  1.300205  0  0  -0.093017  -0.20526  0  1.321271  0
F  F81  1  0.51041201  0.34432678  0.33511220  1  0  -0.259507  0  1.153887  0  0  -0.212606  0  1.310468  0  0  -0.227185  0  1.300255  0  0  -0.093048  -0.205338  0  1.321341  0
F  F82  1  0.65567721  0.48959208  0.16488609  1  0  -0.259794  0  1.153793  0  0  -0.212564  0  1.310403  0  0  -0.22757  0  1.300582  0  0  -0.093063  -0.205296  0  1.321275  0
F  F83  1  0.34432738  0.51041175  0.66488932  1  0  -0.259496  0  1.153733  0  0  -0.212574  0  1.310382  0  0  -0.22762  0  1.300548  0  0  -0.093031  -0.205299  0  1.321257  0
F  F84  1  0.36665426  0.52118279  0.93525660  1  0  -0.234318  0  1.200704  0  0  -0.192561  0  1.363138  0  0  -0.205405  0  1.351109  0  0  -0.088432  -0.185717  0  1.374011  0
F  F85  1  0.63335240  0.47881586  0.43525992  1  0  -0.234209  0  1.200735  0  0  -0.192536  0  1.363034  0  0  -0.205423  0  1.351003  0  0  -0.088419  -0.185693  0  1.373909  0
F  F86  1  0.52117984  0.36665306  0.06473945  1  0  -0.234261  0  1.200565  0  0  -0.192494  0  1.363046  0  0  -0.201086  0  1.346806  0  0  -0.088376  -0.18565  0  1.373919  0
F  F87  1  0.47882395  0.63334574  0.56474091  1  0  -0.234279  0  1.200722  0  0  -0.192547  0  1.363055  0  0  -0.201154  0  1.346783  0  0  -0.088396  -0.185698  0  1.373935  0
