# generated using pymatgen
data_AgH6C8SN7O3
_symmetry_space_group_name_H-M   'P 1'
_cell_length_a   7.40748519
_cell_length_b   8.17449733
_cell_length_c   10.47655735
_cell_angle_alpha   90.56263560
_cell_angle_beta   107.90673779
_cell_angle_gamma   96.53225948
_symmetry_Int_Tables_number   1
_chemical_formula_structural   AgH6C8SN7O3
_chemical_formula_sum   'Ag2 H12 C16 S2 N14 O6'
_cell_volume   599.05821830
_cell_formula_units_Z   2
loop_
 _symmetry_equiv_pos_site_id
 _symmetry_equiv_pos_as_xyz
  1  'x, y, z'
loop_
 _atom_site_type_symbol
 _atom_site_label
 _atom_site_symmetry_multiplicity
 _atom_site_fract_x
 _atom_site_fract_y
 _atom_site_fract_z
 _atom_site_occupancy
 _atom_site_hle17_bader_spin_density
 _atom_site_hle17_ddec_charge
 _atom_site_hle17_ddec_spin_density
 _atom_site_hle17_ddec_sum_bond_order
 _atom_site_hle17_magmom
 _atom_site_hse06_10hf_bader_spin_density
 _atom_site_hse06_10hf_ddec_charge
 _atom_site_hse06_10hf_ddec_spin_density
 _atom_site_hse06_10hf_ddec_sum_bond_order
 _atom_site_hse06_10hf_magmom
 _atom_site_hse06_bader_spin_density
 _atom_site_hse06_ddec_charge
 _atom_site_hse06_ddec_spin_density
 _atom_site_hse06_ddec_sum_bond_order
 _atom_site_hse06_magmom
 _atom_site_pbe_bader_spin_density
 _atom_site_pbe_cm5_charge
 _atom_site_pbe_ddec_charge
 _atom_site_pbe_ddec_spin_density
 _atom_site_pbe_ddec_sum_bond_order
 _atom_site_pbe_magmom
Ag  Ag0  1  0.76976704  0.17408269  0.25195826  1  0  0.544188  0  1.41368  0  0  0.393088  0  1.856098  0  0  0.421824  0  1.815368  0  0  0.464637  0.372387  0  1.883961  0
Ag  Ag1  1  0.23023574  0.82591483  0.74803962  1  0  0.544163  0  1.413683  0  0  0.393046  0  1.856095  0  0  0.42178  0  1.815368  0  0  0.464611  0.37236  0  1.883931  0
H  H2  1  0.57280029  0.24985456  0.92361015  1  0  0.109582  0  0.945177  0  0  0.118389  0  1.006208  0  0  0.121237  0  1.002781  0  0  0.132865  0.11624  0  1.008819  0
H  H3  1  0.42719867  0.75014659  0.07638882  1  0  0.1096  0  0.945101  0  0  0.118427  0  1.006109  0  0  0.121276  0  1.00268  0  0  0.132861  0.116279  0  1.00872  0
H  H4  1  0.89053581  0.86422962  0.08724340  1  0  0.122182  0  0.933813  0  0  0.12557  0  1.00459  0  0  0.129307  0  1.000036  0  0  0.142501  0.122751  0  1.008043  0
H  H5  1  0.10946315  0.13577153  0.91275557  1  0  0.122265  0  0.933831  0  0  0.125611  0  1.004643  0  0  0.12936  0  1.000057  0  0  0.142523  0.122796  0  1.008093  0
H  H6  1  0.70194824  0.57489366  0.94579343  1  0  0.165434  0  0.970436  0  0  0.167894  0  1.037919  0  0  0.172419  0  1.034415  0  0  0.114624  0.163873  0  1.041483  0
H  H7  1  0.29805182  0.42510505  0.05420671  1  0  0.165429  0  0.970444  0  0  0.167889  0  1.037934  0  0  0.172415  0  1.034429  0  0  0.114624  0.163864  0  1.0415  0
H  H8  1  0.76685454  0.59193234  0.52436173  1  0  0.164405  0  0.976787  0  0  0.168308  0  1.0415  0  0  0.172686  0  1.038289  0  0  0.11392  0.164366  0  1.044952  0
H  H9  1  0.23314628  0.40807253  0.47563960  1  0  0.164396  0  0.97679  0  0  0.168289  0  1.041506  0  0  0.172675  0  1.038286  0  0  0.113927  0.164348  0  1.044956  0
H  H10  1  0.97530188  0.28018803  0.58748387  1  0  0.104009  0  0.955173  0  0  0.109603  0  1.021437  0  0  0.112278  0  1.018545  0  0  0.130831  0.107493  0  1.023868  0
H  H11  1  0.02470225  0.71980828  0.41250762  1  0  0.104005  0  0.955187  0  0  0.109569  0  1.021486  0  0  0.112244  0  1.018592  0  0  0.130836  0.107457  0  1.023924  0
H  H12  1  0.60001307  0.85934134  0.40083467  1  0  0.119389  0  0.934724  0  0  0.122083  0  1.009047  0  0  0.126146  0  1.003236  0  0  0.141024  0.119133  0  1.012949  0
H  H13  1  0.39998633  0.14065243  0.59916911  1  0  0.119366  0  0.934666  0  0  0.122026  0  1.009051  0  0  0.126089  0  1.003243  0  0  0.140967  0.119076  0  1.012951  0
C  C14  1  0.64276858  0.13897737  0.93259581  1  0  0.197187  0  3.68374  0  0  0.145292  0  3.968083  0  0  0.156921  0  3.980383  0  0  0.139311  0.137673  0  3.95966  0
C  C15  1  0.35722785  0.86102621  0.06740262  1  0  0.19715  0  3.683684  0  0  0.145243  0  3.968019  0  0  0.156869  0  3.980318  0  0  0.139349  0.137624  0  3.959598  0
C  C16  1  0.80319064  0.94356896  0.01855647  1  0  0.1788  0  3.616594  0  0  0.101568  0  3.883295  0  0  0.116484  0  3.89347  0  0  0.163204  0.091917  0  3.876249  0
C  C17  1  0.19680721  0.05643465  0.98144227  1  0  0.178754  0  3.616539  0  0  0.101525  0  3.883251  0  0  0.116447  0  3.893427  0  0  0.163233  0.091866  0  3.876203  0
C  C18  1  0.72047447  0.61502946  0.85107069  1  0  -0.240233  0  3.637636  0  0  -0.261619  0  3.915622  0  0  -0.263722  0  3.933529  0  0  -0.095925  -0.259521  0  3.90398  0
C  C19  1  0.27952433  0.38497046  0.14892919  1  0  -0.240217  0  3.637607  0  0  -0.261603  0  3.915515  0  0  -0.263704  0  3.933415  0  0  -0.095927  -0.259516  0  3.903912  0
C  C20  1  0.73081951  0.77285523  0.80701950  1  0  0.094442  0  3.817083  0  0  0.064735  0  4.082419  0  0  0.068343  0  4.101555  0  0  0.082422  0.062647  0  4.068158  0
C  C21  1  0.26917486  0.22714340  0.19298033  1  0  0.094427  0  3.81695  0  0  0.064801  0  4.082187  0  0  0.06841  0  4.101324  0  0  0.082417  0.062719  0  4.067913  0
C  C22  1  0.74895497  0.77822416  0.67482554  1  0  0.087398  0  3.827474  0  0  0.058192  0  4.092662  0  0  0.069818  0  4.116895  0  0  0.080646  0.055965  0  4.078608  0
C  C23  1  0.25104599  0.22178193  0.32517773  1  0  0.087319  0  3.827611  0  0  0.058082  0  4.092809  0  0  0.069694  0  4.117036  0  0  0.080621  0.055854  0  4.078744  0
C  C24  1  0.74981677  0.62399128  0.62100703  1  0  -0.254096  0  3.666598  0  0  -0.275198  0  3.947599  0  0  -0.276392  0  3.961584  0  0  -0.099108  -0.273355  0  3.936998  0
C  C25  1  0.25018502  0.37600990  0.37899353  1  0  -0.254056  0  3.666715  0  0  -0.275159  0  3.947764  0  0  -0.276361  0  3.96175  0  0  -0.099125  -0.273312  0  3.937153  0
C  C26  1  0.89027263  0.16001310  0.57252694  1  0  0.190839  0  3.696419  0  0  0.140245  0  3.983808  0  0  0.152756  0  3.99312  0  0  0.137918  0.132785  0  3.975154  0
C  C27  1  0.10972702  0.83998192  0.42746832  1  0  0.190984  0  3.696161  0  0  0.1404  0  3.983551  0  0  0.15291  0  3.992867  0  0  0.137957  0.132943  0  3.974908  0
C  C28  1  0.69891737  0.94800756  0.47431487  1  0  0.181633  0  3.608625  0  0  0.104886  0  3.874751  0  0  0.128113  0  3.890109  0  0  0.162672  0.095036  0  3.867822  0
C  C29  1  0.30108080  0.05198743  0.52568483  1  0  0.181718  0  3.608534  0  0  0.104988  0  3.874688  0  0  0.128199  0  3.890037  0  0  0.162725  0.095139  0  3.867755  0
S  S30  1  0.73098012  0.47589808  0.73149261  1  0  0.250864  0  2.676654  0  0  0.262391  0  3.011449  0  0  0.257375  0  3.021851  0  0  0.116658  0.265231  0  3.004808  0
S  S31  1  0.26902183  0.52410434  0.26850798  1  0  0.250819  0  2.67663  0  0  0.262337  0  3.011429  0  0  0.257322  0  3.021831  0  0  0.116636  0.265175  0  3.004789  0
N  N32  1  0.75501534  0.08686064  0.05133800  1  0  -0.375378  0  3.281991  0  0  -0.296521  0  3.59405  0  0  -0.317945  0  3.605839  0  0  -0.364337  -0.281673  0  3.585107  0
N  N33  1  0.24498535  0.91314300  0.94866138  1  0  -0.375432  0  3.281883  0  0  -0.296543  0  3.593902  0  0  -0.31797  0  3.605696  0  0  -0.364382  -0.281692  0  3.584963  0
N  N34  1  0.61865721  0.03603011  0.82849991  1  0  -0.276577  0  2.893581  0  0  -0.275182  0  3.18069  0  0  -0.283421  0  3.192023  0  0  -0.222141  -0.269461  0  3.172828  0
N  N35  1  0.38133432  0.96396849  0.17149929  1  0  -0.276538  0  2.893611  0  0  -0.275165  0  3.180732  0  0  -0.283403  0  3.192066  0  0  -0.222166  -0.269443  0  3.172872  0
N  N36  1  0.72277831  0.91207601  0.88480440  1  0  0.024493  0  3.607747  0  0  0.143307  0  3.782756  0  0  0.132525  0  3.806311  0  0  -0.118363  0.149615  0  3.767824  0
N  N37  1  0.27721732  0.08792141  0.11519571  1  0  0.024474  0  3.607769  0  0  0.143289  0  3.782744  0  0  0.132506  0  3.806299  0  0  -0.118372  0.149604  0  3.767801  0
N  N38  1  0.77144982  0.92369805  0.60680434  1  0  0.021319  0  3.616128  0  0  0.139135  0  3.793245  0  0  0.099963  0  3.858386  0  0  -0.120635  0.146181  0  3.776841  0
N  N39  1  0.22854768  0.07630308  0.39319717  1  0  0.021394  0  3.616072  0  0  0.13917  0  3.79324  0  0  0.100048  0  3.858316  0  0  -0.120567  0.146217  0  3.776833  0
N  N40  1  0.89501388  0.05839613  0.67103767  1  0  -0.270127  0  2.886765  0  0  -0.271193  0  3.172224  0  0  -0.271411  0  3.191381  0  0  -0.218356  -0.265602  0  3.163809  0
N  N41  1  0.10498414  0.94160871  0.32896016  1  0  -0.27016  0  2.886704  0  0  -0.271211  0  3.172178  0  0  -0.271441  0  3.191321  0  0  -0.218362  -0.265621  0  3.163767  0
N  N42  1  0.77190037  0.09699846  0.44988022  1  0  -0.374165  0  3.282885  0  0  -0.296  0  3.596626  0  0  -0.316199  0  3.604091  0  0  -0.36613  -0.281282  0  3.588199  0
N  N43  1  0.22810353  0.90299661  0.55011693  1  0  -0.374308  0  3.282744  0  0  -0.296105  0  3.596475  0  0  -0.316301  0  3.603932  0  0  -0.366153  -0.281395  0  3.588063  0
N  N44  1  0.73970403  0.54443333  0.23401023  1  0  0.684075  0  4.174104  0  0  0.724117  0  4.456881  0  0  0.739976  0  4.481449  0  0  0.086793  0.704716  0  4.451888  0
N  N45  1  0.26029758  0.45556663  0.76599218  1  0  0.683847  0  4.174505  0  0  0.723946  0  4.457233  0  0  0.739822  0  4.481783  0  0  0.086691  0.704551  0  4.452236  0
O  O46  1  0.80624112  0.48638173  0.34956138  1  0  -0.491756  0  1.775421  0  0  -0.472684  0  1.997351  0  0  -0.48522  0  1.994566  0  0  -0.207139  -0.460348  0  2.002994  0
O  O47  1  0.19376162  0.51361578  0.65044031  1  0  -0.491655  0  1.775533  0  0  -0.472581  0  1.9974  0  0  -0.485123  0  1.994607  0  0  -0.20712  -0.460249  0  2.003041  0
O  O48  1  0.70715378  0.45101486  0.12956091  1  0  -0.483667  0  1.797091  0  0  -0.468178  0  2.027662  0  0  -0.480712  0  2.024472  0  0  -0.20405  -0.455801  0  2.033554  0
O  O49  1  0.29284847  0.54899003  0.87044073  1  0  -0.483585  0  1.797213  0  0  -0.468157  0  2.027806  0  0  -0.480699  0  2.024612  0  0  -0.204008  -0.455784  0  2.033699  0
O  O50  1  0.70717011  0.69261864  0.22402392  1  0  -0.47423  0  1.76392  0  0  -0.47221  0  1.986793  0  0  -0.483144  0  1.986659  0  0  -0.193847  -0.460952  0  1.990274  0
O  O51  1  0.29283160  0.30738253  0.77598330  1  0  -0.474172  0  1.764064  0  0  -0.472133  0  1.986911  0  0  -0.483073  0  1.986771  0  0  -0.193791  -0.460877  0  1.990387  0
