# generated using pymatgen
data_SrH14C8(NO5)2
_symmetry_space_group_name_H-M   'P 1'
_cell_length_a   6.05473817
_cell_length_b   10.17173231
_cell_length_c   10.95377339
_cell_angle_alpha   111.87948017
_cell_angle_beta   90.00026912
_cell_angle_gamma   89.99971672
_symmetry_Int_Tables_number   1
_chemical_formula_structural   SrH14C8(NO5)2
_chemical_formula_sum   'Sr2 H28 C16 N4 O20'
_cell_volume   626.01951583
_cell_formula_units_Z   2
loop_
 _symmetry_equiv_pos_site_id
 _symmetry_equiv_pos_as_xyz
  1  'x, y, z'
loop_
 _atom_site_type_symbol
 _atom_site_label
 _atom_site_symmetry_multiplicity
 _atom_site_fract_x
 _atom_site_fract_y
 _atom_site_fract_z
 _atom_site_occupancy
 _atom_site_hle17_bader_spin_density
 _atom_site_hle17_ddec_charge
 _atom_site_hle17_ddec_spin_density
 _atom_site_hle17_ddec_sum_bond_order
 _atom_site_hle17_magmom
 _atom_site_hse06_10hf_bader_spin_density
 _atom_site_hse06_10hf_ddec_charge
 _atom_site_hse06_10hf_ddec_spin_density
 _atom_site_hse06_10hf_ddec_sum_bond_order
 _atom_site_hse06_10hf_magmom
 _atom_site_hse06_bader_spin_density
 _atom_site_hse06_ddec_charge
 _atom_site_hse06_ddec_spin_density
 _atom_site_hse06_ddec_sum_bond_order
 _atom_site_hse06_magmom
 _atom_site_pbe_bader_spin_density
 _atom_site_pbe_cm5_charge
 _atom_site_pbe_ddec_charge
 _atom_site_pbe_ddec_spin_density
 _atom_site_pbe_ddec_sum_bond_order
 _atom_site_pbe_magmom
Sr  Sr0  1  0.44509805  0.14019305  0.99660338  1  0  1.637451  0  1.114501  0  0  1.496731  0  1.497829  0  0  1.533547  0  1.450553  0  0  0.935413  1.468832  0  1.533011  0
Sr  Sr1  1  0.55490089  0.64019615  0.99660506  1  0  1.637467  0  1.114514  0  0  1.496776  0  1.497809  0  0  1.533588  0  1.450536  0  0  0.935429  1.468873  0  1.53299  0
H  H2  1  0.97888128  0.03336591  0.02550335  1  0  0.426957  0  0.870875  0  0  0.39633  0  0.939448  0  0  0.406943  0  0.924044  0  0  0.308178  0.388737  0  0.950531  0
H  H3  1  0.02111690  0.53336384  0.02550182  1  0  0.426957  0  0.8709  0  0  0.39634  0  0.939436  0  0  0.406951  0  0.924037  0  0  0.308184  0.388744  0  0.950522  0
H  H4  1  0.03577387  0.12251684  0.17486351  1  0  0.423037  0  0.862649  0  0  0.391243  0  0.93767  0  0  0.400888  0  0.923495  0  0  0.307912  0.384232  0  0.94804  0
H  H5  1  0.96422649  0.62251480  0.17486354  1  0  0.423036  0  0.862679  0  0  0.391246  0  0.937676  0  0  0.400893  0  0.923498  0  0  0.307899  0.384235  0  0.948047  0
H  H6  1  0.03581775  0.15724589  0.81788890  1  0  0.421876  0  0.863952  0  0  0.390544  0  0.938535  0  0  0.400166  0  0.924378  0  0  0.307669  0.383547  0  0.948909  0
H  H7  1  0.96418283  0.65724916  0.81788897  1  0  0.421886  0  0.863932  0  0  0.390551  0  0.938526  0  0  0.40017  0  0.924372  0  0  0.307668  0.383552  0  0.948899  0
H  H8  1  0.97885302  0.24649935  0.96719821  1  0  0.426357  0  0.870692  0  0  0.395695  0  0.940155  0  0  0.406312  0  0.92474  0  0  0.308089  0.388107  0  0.951231  0
H  H9  1  0.02114645  0.74650151  0.96719909  1  0  0.426333  0  0.870712  0  0  0.395664  0  0.940198  0  0  0.40628  0  0.924783  0  0  0.308076  0.388074  0  0.951276  0
H  H10  1  0.84256117  0.29618892  0.18249459  1  0  0.420291  0  0.876497  0  0  0.387915  0  0.945601  0  0  0.397245  0  0.931806  0  0  0.30499  0.381223  0  0.95556  0
H  H11  1  0.15743451  0.79618866  0.18249405  1  0  0.420287  0  0.876517  0  0  0.387913  0  0.945607  0  0  0.397244  0  0.931811  0  0  0.304979  0.38122  0  0.955568  0
H  H12  1  0.81628347  0.40208727  0.10702590  1  0  0.432194  0  0.868715  0  0  0.402356  0  0.929951  0  0  0.412831  0  0.91473  0  0  0.302957  0.394715  0  0.941033  0
H  H13  1  0.18371400  0.90209013  0.10702744  1  0  0.432209  0  0.868688  0  0  0.402377  0  0.929914  0  0  0.412852  0  0.914694  0  0  0.302964  0.394737  0  0.940997  0
H  H14  1  0.81620389  0.87776946  0.88584659  1  0  0.432719  0  0.867981  0  0  0.402274  0  0.930026  0  0  0.412775  0  0.914802  0  0  0.303107  0.394615  0  0.94111  0
H  H15  1  0.18379545  0.37776797  0.88584753  1  0  0.432674  0  0.868035  0  0  0.40224  0  0.930067  0  0  0.412741  0  0.914843  0  0  0.303097  0.394581  0  0.941153  0
H  H16  1  0.84218939  0.98383526  0.81054202  1  0  0.419742  0  0.876865  0  0  0.387643  0  0.945793  0  0  0.396964  0  0.932006  0  0  0.305219  0.380951  0  0.955757  0
H  H17  1  0.15780843  0.48383278  0.81054164  1  0  0.419688  0  0.876947  0  0  0.387578  0  0.945888  0  0  0.396897  0  0.932106  0  0  0.305199  0.380885  0  0.955853  0
H  H18  1  0.13066185  0.87512506  0.59174484  1  0  0.320839  0  0.900375  0  0  0.29404  0  0.978978  0  0  0.304148  0  0.96977  0  0  0.307684  0.286602  0  0.985978  0
H  H19  1  0.86933666  0.37512950  0.59174692  1  0  0.320759  0  0.900434  0  0  0.294056  0  0.978936  0  0  0.304157  0  0.96973  0  0  0.307677  0.286613  0  0.985938  0
H  H20  1  0.13172497  0.40521231  0.40149991  1  0  0.32094  0  0.900349  0  0  0.294485  0  0.978457  0  0  0.30461  0  0.969246  0  0  0.307941  0.287023  0  0.98547  0
H  H21  1  0.86827333  0.90521154  0.40150104  1  0  0.320972  0  0.900364  0  0  0.29447  0  0.978502  0  0  0.304596  0  0.969291  0  0  0.307931  0.287009  0  0.985512  0
H  H22  1  0.65936087  0.50255942  0.38986125  1  0  0.097398  0  0.925408  0  0  0.113192  0  0.984484  0  0  0.115141  0  0.984161  0  0  0.100781  0.111717  0  0.984878  0
H  H23  1  0.34063735  0.00256078  0.38986269  1  0  0.097435  0  0.925441  0  0  0.113237  0  0.984492  0  0  0.115188  0  0.984166  0  0  0.1008  0.111764  0  0.984886  0
H  H24  1  0.64183004  0.66853427  0.37166561  1  0  0.102075  0  0.928592  0  0  0.116037  0  0.99023  0  0  0.118056  0  0.989637  0  0  0.10517  0.114454  0  0.990972  0
H  H25  1  0.35817162  0.16853770  0.37166873  1  0  0.102113  0  0.928518  0  0  0.116057  0  0.990164  0  0  0.118074  0  0.98957  0  0  0.105166  0.114473  0  0.990908  0
H  H26  1  0.65864385  0.77891388  0.60362762  1  0  0.097898  0  0.925529  0  0  0.1135  0  0.984934  0  0  0.115419  0  0.984632  0  0  0.100906  0.112012  0  0.985353  0
H  H27  1  0.34135391  0.27891415  0.60363051  1  0  0.097821  0  0.925534  0  0  0.113472  0  0.984913  0  0  0.115393  0  0.984605  0  0  0.100891  0.111985  0  0.985328  0
H  H28  1  0.64219964  0.61286307  0.62176538  1  0  0.103205  0  0.927936  0  0  0.116968  0  0.989565  0  0  0.119031  0  0.988892  0  0  0.105564  0.115352  0  0.99034  0
H  H29  1  0.35780791  0.11286120  0.62176664  1  0  0.103174  0  0.927909  0  0  0.116937  0  0.989565  0  0  0.118999  0  0.988892  0  0  0.105551  0.115321  0  0.990347  0
C  C30  1  0.32639650  0.57001245  0.37367116  1  0  0.01204  0  3.578153  0  0  0.016716  0  3.813348  0  0  0.014032  0  3.825373  0  0  0.087806  0.018485  0  3.805102  0
C  C31  1  0.67360599  0.07001517  0.37367486  1  0  0.012063  0  3.578257  0  0  0.01681  0  3.813386  0  0  0.014124  0  3.825416  0  0  0.087812  0.018575  0  3.805141  0
C  C32  1  0.20242539  0.71271836  0.41202253  1  0  0.550178  0  3.73451  0  0  0.500048  0  4.024553  0  0  0.529567  0  4.022974  0  0  0.258178  0.479938  0  4.025193  0
C  C33  1  0.79757293  0.21271873  0.41202117  1  0  0.550195  0  3.734585  0  0  0.500006  0  4.024749  0  0  0.529516  0  4.023167  0  0  0.258132  0.479898  0  4.025389  0
C  C34  1  0.32613106  0.71066152  0.61967821  1  0  0.012144  0  3.579355  0  0  0.017484  0  3.814546  0  0  0.014726  0  3.826528  0  0  0.08803  0.019309  0  3.806321  0
C  C35  1  0.67387236  0.21066105  0.61968262  1  0  0.012125  0  3.579503  0  0  0.017624  0  3.814528  0  0  0.014851  0  3.826508  0  0  0.088058  0.019448  0  3.806304  0
C  C36  1  0.20284292  0.56773848  0.58127549  1  0  0.549482  0  3.731818  0  0  0.498277  0  4.023489  0  0  0.527835  0  4.021901  0  0  0.256967  0.478108  0  4.024159  0
C  C37  1  0.79715970  0.06773564  0.58127664  1  0  0.549507  0  3.731876  0  0  0.498239  0  4.023546  0  0  0.527809  0  4.021947  0  0  0.256977  0.478071  0  4.024222  0
C  C38  1  0.56906767  0.60344084  0.42164059  1  0  -0.147339  0  3.599389  0  0  -0.194514  0  3.857699  0  0  -0.195736  0  3.868783  0  0  -0.154237  -0.193467  0  3.85003  0
C  C39  1  0.43093495  0.10344093  0.42164182  1  0  -0.147435  0  3.599506  0  0  -0.194588  0  3.857797  0  0  -0.19581  0  3.868875  0  0  -0.154245  -0.193541  0  3.850128  0
C  C40  1  0.56894083  0.67783408  0.57183102  1  0  -0.149219  0  3.600335  0  0  -0.196185  0  3.85834  0  0  -0.197362  0  3.869356  0  0  -0.154418  -0.195122  0  3.850694  0
C  C41  1  0.43106575  0.17783417  0.57183225  1  0  -0.149083  0  3.600268  0  0  -0.196158  0  3.858297  0  0  -0.197328  0  3.869301  0  0  -0.154397  -0.195094  0  3.850653  0
C  C42  1  0.33204142  0.47750648  0.22605783  1  0  0.657534  0  3.937766  0  0  0.605585  0  4.241399  0  0  0.639495  0  4.231826  0  0  0.220129  0.582521  0  4.246944  0
C  C43  1  0.66795974  0.97750613  0.22606133  1  0  0.657548  0  3.937715  0  0  0.605503  0  4.241497  0  0  0.639413  0  4.231932  0  0  0.220153  0.582444  0  4.247031  0
C  C44  1  0.33173848  0.80305145  0.76731089  1  0  0.657554  0  3.93881  0  0  0.604956  0  4.243189  0  0  0.638914  0  4.233602  0  0  0.220201  0.581861  0  4.248742  0
C  C45  1  0.66825882  0.30305633  0.76731260  1  0  0.65747  0  3.938983  0  0  0.604899  0  4.243272  0  0  0.638857  0  4.233683  0  0  0.220188  0.581802  0  4.248823  0
N  N46  1  0.21901266  0.78370957  0.54222253  1  0  -0.431071  0  3.260282  0  0  -0.379602  0  3.504285  0  0  -0.400919  0  3.511063  0  0  -0.399581  -0.364949  0  3.499796  0
N  N47  1  0.78098784  0.28371206  0.54222643  1  0  -0.430938  0  3.260126  0  0  -0.379636  0  3.504157  0  0  -0.400933  0  3.510919  0  0  -0.399533  -0.364976  0  3.499663  0
N  N48  1  0.21975833  0.49674171  0.45109732  1  0  -0.430341  0  3.258763  0  0  -0.378784  0  3.503025  0  0  -0.400222  0  3.50991  0  0  -0.399275  -0.364045  0  3.498483  0
N  N49  1  0.78024623  0.99674326  0.45109813  1  0  -0.430461  0  3.258917  0  0  -0.378826  0  3.503171  0  0  -0.400262  0  3.510051  0  0  -0.399278  -0.364081  0  3.498626  0
O  O50  1  0.09812002  0.05371258  0.09302738  1  0  -0.855778  0  1.899858  0  0  -0.793233  0  2.090015  0  0  -0.813211  0  2.058984  0  0  -0.594441  -0.778725  0  2.112284  0
O  O51  1  0.90188021  0.55371176  0.09302585  1  0  -0.855758  0  1.899851  0  0  -0.793221  0  2.089979  0  0  -0.813199  0  2.058947  0  0  -0.594443  -0.778713  0  2.112252  0
O  O52  1  0.09375133  0.75517587  0.33606570  1  0  -0.585129  0  2.019019  0  0  -0.527179  0  2.242825  0  0  -0.548964  0  2.23343  0  0  -0.281175  -0.512045  0  2.249509  0
O  O53  1  0.90624435  0.25517489  0.33606962  1  0  -0.58512  0  2.01927  0  0  -0.527112  0  2.243079  0  0  -0.548892  0  2.233681  0  0  -0.28115  -0.511987  0  2.24977  0
O  O54  1  0.09812439  0.22613838  0.89970701  1  0  -0.854073  0  1.899906  0  0  -0.791437  0  2.090856  0  0  -0.811408  0  2.059961  0  0  -0.594291  -0.77693  0  2.112989  0
O  O55  1  0.90187467  0.72613860  0.89970767  1  0  -0.854059  0  1.899911  0  0  -0.791414  0  2.090864  0  0  -0.811386  0  2.059974  0  0  -0.594277  -0.776917  0  2.113023  0
O  O56  1  0.09432510  0.52509783  0.65717749  1  0  -0.585055  0  2.019277  0  0  -0.527136  0  2.243832  0  0  -0.548902  0  2.234378  0  0  -0.281033  -0.512015  0  2.250587  0
O  O57  1  0.90568017  0.02509688  0.65717959  1  0  -0.585074  0  2.019299  0  0  -0.527145  0  2.243866  0  0  -0.548928  0  2.234424  0  0  -0.281059  -0.512027  0  2.250627  0
O  O58  1  0.78868398  0.30264240  0.10047138  1  0  -0.877565  0  1.902328  0  0  -0.82037  0  2.090166  0  0  -0.840576  0  2.060464  0  0  -0.602975  -0.805983  0  2.111728  0
O  O59  1  0.21131425  0.80264308  0.10047132  1  0  -0.877571  0  1.902309  0  0  -0.820375  0  2.090121  0  0  -0.840583  0  2.060418  0  0  -0.60297  -0.805999  0  2.111699  0
O  O60  1  0.27862249  0.34906398  0.19385127  1  0  -0.674973  0  1.959741  0  0  -0.622031  0  2.203799  0  0  -0.645584  0  2.192634  0  0  -0.361363  -0.605173  0  2.211456  0
O  O61  1  0.72138606  0.84906456  0.19385615  1  0  -0.674955  0  1.959706  0  0  -0.621998  0  2.203811  0  0  -0.645551  0  2.192648  0  0  -0.361369  -0.605141  0  2.211464  0
O  O62  1  0.78842856  0.97725040  0.89253335  1  0  -0.87727  0  1.901395  0  0  -0.819854  0  2.090458  0  0  -0.840089  0  2.060679  0  0  -0.603024  -0.80545  0  2.11211  0
O  O63  1  0.21156010  0.47724990  0.89253563  1  0  -0.877197  0  1.901544  0  0  -0.819795  0  2.090594  0  0  -0.840029  0  2.060822  0  0  -0.602997  -0.80538  0  2.112228  0
O  O64  1  0.40321982  0.53908191  0.15340482  1  0  -0.689679  0  2.000494  0  0  -0.635167  0  2.253746  0  0  -0.660387  0  2.243292  0  0  -0.377811  -0.616968  0  2.260663  0
O  O65  1  0.59677939  0.03908058  0.15340598  1  0  -0.689717  0  2.000441  0  0  -0.635165  0  2.253739  0  0  -0.660387  0  2.243291  0  0  -0.377844  -0.616966  0  2.260651  0
O  O66  1  0.40296095  0.74134843  0.83983599  1  0  -0.689178  0  2.000271  0  0  -0.634646  0  2.254036  0  0  -0.65985  0  2.243515  0  0  -0.377681  -0.616446  0  2.260965  0
O  O67  1  0.59703747  0.24135560  0.83983650  1  0  -0.689083  0  2.00031  0  0  -0.634562  0  2.254028  0  0  -0.659769  0  2.243518  0  0  -0.377593  -0.616363  0  2.260963  0
O  O68  1  0.27827582  0.93150706  0.79960866  1  0  -0.675247  0  1.960867  0  0  -0.621917  0  2.205177  0  0  -0.645464  0  2.193916  0  0  -0.361586  -0.60504  0  2.212833  0
O  O69  1  0.72170747  0.43151395  0.79961031  1  0  -0.675264  0  1.960881  0  0  -0.621961  0  2.205194  0  0  -0.645509  0  2.193932  0  0  -0.361672  -0.605103  0  2.212886  0
