# generated using pymatgen
data_ErH14C20N5O7
_symmetry_space_group_name_H-M   'P 1'
_cell_length_a   9.79992069
_cell_length_b   11.83133291
_cell_length_c   11.83117679
_cell_angle_alpha   65.67640896
_cell_angle_beta   71.46504885
_cell_angle_gamma   71.46532422
_symmetry_Int_Tables_number   1
_chemical_formula_structural   ErH14C20N5O7
_chemical_formula_sum   'Er2 H28 C40 N10 O14'
_cell_volume   1157.09543122
_cell_formula_units_Z   2
loop_
 _symmetry_equiv_pos_site_id
 _symmetry_equiv_pos_as_xyz
  1  'x, y, z'
loop_
 _atom_site_type_symbol
 _atom_site_label
 _atom_site_symmetry_multiplicity
 _atom_site_fract_x
 _atom_site_fract_y
 _atom_site_fract_z
 _atom_site_occupancy
 _atom_site_pbe_bader_charge
 _atom_site_pbe_bader_spin_density
 _atom_site_pbe_cm5_charge
 _atom_site_pbe_ddec_charge
 _atom_site_pbe_ddec_spin_density
 _atom_site_pbe_ddec_sum_bond_order
 _atom_site_pbe_magmom
Er  Er0  1  0.74999755  0.06228288  0.93773180  1  2.171153  0  1.5596  1.978719  0  2.33362  0
Er  Er1  1  0.24999833  0.93773936  0.06224435  1  2.171381  0  1.559533  1.978589  0  2.333932  0
H  H2  1  0.90237241  0.89104324  0.27456023  1  0.546985  0  0.324604  0.262934  0  0.998944  0
H  H3  1  0.82773846  0.92504465  0.66320611  1  0.088332  0  0.108362  0.113429  0  1.019644  0
H  H4  1  0.70352194  0.79397159  0.42675352  1  0.128085  0  0.098817  0.09998  0  1.067552  0
H  H5  1  0.44992382  0.80702614  0.55936136  1  0.072861  0  0.104655  0.105648  0  0.980986  0
H  H6  1  0.38793514  0.86965367  0.75071623  1  0.092533  0  0.105711  0.106609  0  1.020616  0
H  H7  1  0.08373817  0.78929595  0.59344116  1  0.095039  0  0.105381  0.137018  0  1.028836  0
H  H8  1  0.29758731  0.79386303  0.37443215  1  0.073093  0  0.125331  0.111709  0  0.989296  0
H  H9  1  0.59762114  0.72543604  0.10896314  1  0.547062  0  0.324589  0.262883  0  0.999058  0
H  H10  1  0.67226642  0.33678175  0.07496667  1  0.08823  0  0.108396  0.113514  0  1.019637  0
H  H11  1  0.79648298  0.57323952  0.20603487  1  0.128199  0  0.09884  0.100003  0  1.067527  0
H  H12  1  0.05008019  0.44063922  0.19297919  1  0.072705  0  0.104654  0.105656  0  0.98106  0
H  H13  1  0.11206870  0.24928065  0.13035171  1  0.092486  0  0.105691  0.106587  0  1.020629  0
H  H14  1  0.41626726  0.40655553  0.21069877  1  0.094947  0  0.105379  0.136995  0  1.028818  0
H  H15  1  0.20240926  0.62556825  0.20613365  1  0.073021  0  0.125365  0.111806  0  0.989436  0
H  H16  1  0.09762499  0.10895303  0.72544280  1  0.546978  0  0.324618  0.262857  0  0.999048  0
H  H17  1  0.17225584  0.07495533  0.33680049  1  0.088647  0  0.108367  0.113428  0  1.019579  0
H  H18  1  0.29647386  0.20602663  0.57324578  1  0.128207  0  0.098824  0.099979  0  1.067527  0
H  H19  1  0.55007439  0.19296718  0.44064855  1  0.072958  0  0.104659  0.10565  0  0.980989  0
H  H20  1  0.61206884  0.13034638  0.24928860  1  0.093173  0  0.105708  0.106603  0  1.020661  0
H  H21  1  0.91625766  0.21068985  0.40656563  1  0.094413  0  0.105403  0.137006  0  1.028831  0
H  H22  1  0.70241313  0.20613411  0.62557649  1  0.073091  0  0.125359  0.111808  0  0.989367  0
H  H23  1  0.40238079  0.27455933  0.89103819  1  0.547063  0  0.324543  0.262809  0  0.999136  0
H  H24  1  0.32772907  0.66321749  0.92502723  1  0.088345  0  0.108411  0.113513  0  1.019607  0
H  H25  1  0.20351791  0.42675579  0.79397015  1  0.127937  0  0.098803  0.099925  0  1.06763  0
H  H26  1  0.94991545  0.55935136  0.80702404  1  0.072675  0  0.104651  0.105634  0  0.981065  0
H  H27  1  0.88792133  0.75071477  0.86964348  1  0.093284  0  0.105763  0.106691  0  1.020661  0
H  H28  1  0.58373236  0.59344458  0.78930129  1  0.094981  0  0.1054  0.137033  0  1.028763  0
H  H29  1  0.79758156  0.37443267  0.79387266  1  0.073098  0  0.125335  0.1117  0  0.989354  0
C  C30  1  0.56522915  0.94023416  0.83110173  1  1.589239  0  0.239701  0.678348  0  4.11603  0
C  C31  1  0.60465658  0.89963805  0.71849473  1  -0.037397  0  -0.020848  -0.049325  0  3.978034  0
C  C32  1  0.74666313  0.89629667  0.64141051  1  -0.068418  0  -0.077639  -0.132314  0  3.925615  0
C  C33  1  0.78417510  0.85709148  0.53637241  1  0.048306  0  -0.007561  0.040684  0  4.038277  0
C  C34  1  0.67542039  0.82582220  0.50725413  1  -0.077836  0  -0.085502  -0.114591  0  3.946188  0
C  C35  1  0.53326875  0.83139673  0.58301544  1  -0.048756  0  -0.087274  -0.073428  0  4.025102  0
C  C36  1  0.49788011  0.86629061  0.68958989  1  -0.024833  0  -0.083591  -0.098553  0  3.974551  0
C  C37  1  0.93556412  0.84664671  0.46136561  1  0.404211  0  0.102776  0.153566  0  3.996028  0
C  C38  1  0.06934585  0.81384541  0.49838478  1  -0.023925  0  -0.116485  -0.266147  0  3.975771  0
C  C39  1  0.17872559  0.81380610  0.38825908  1  0.450529  0  0.022098  0.029221  0  4.035615  0
C  C40  1  0.93477779  0.16890212  0.05977564  1  1.588641  0  0.239736  0.678431  0  4.1161  0
C  C41  1  0.89534429  0.28150825  0.10037242  1  -0.036542  0  -0.020793  -0.049474  0  3.97825  0
C  C42  1  0.75333252  0.35858828  0.10371492  1  -0.068222  0  -0.077695  -0.132454  0  3.925711  0
C  C43  1  0.71582879  0.46362479  0.14291572  1  0.048125  0  -0.007602  0.040778  0  4.038298  0
C  C44  1  0.82458478  0.49274351  0.17418054  1  -0.077729  0  -0.08547  -0.114562  0  3.946218  0
C  C45  1  0.96673595  0.41698456  0.16860705  1  -0.04874  0  -0.087303  -0.073538  0  4.025217  0
C  C46  1  0.00212908  0.31041456  0.13371139  1  -0.025072  0  -0.083524  -0.098334  0  3.974596  0
C  C47  1  0.56443762  0.53862596  0.15336471  1  0.403906  0  0.102687  0.153469  0  3.996009  0
C  C48  1  0.43065209  0.50161150  0.18615807  1  -0.023517  0  -0.116518  -0.266121  0  3.975851  0
C  C49  1  0.32126985  0.61173385  0.18619887  1  0.450403  0  0.022038  0.029001  0  4.035949  0
C  C50  1  0.43478674  0.05977369  0.16889173  1  1.589499  0  0.239633  0.678197  0  4.11631  0
C  C51  1  0.39534410  0.10035816  0.28151253  1  -0.039126  0  -0.020858  -0.049329  0  3.978084  0
C  C52  1  0.25333808  0.10370151  0.35859243  1  -0.06882  0  -0.077589  -0.132203  0  3.925682  0
C  C53  1  0.21582577  0.14290387  0.46363006  1  0.048115  0  -0.007565  0.040566  0  4.038516  0
C  C54  1  0.32457935  0.17416931  0.49275188  1  -0.077886  0  -0.085528  -0.11452  0  3.946377  0
C  C55  1  0.46672829  0.16859279  0.41699546  1  -0.049171  0  -0.087345  -0.073592  0  4.0253  0
C  C56  1  0.50212470  0.13369803  0.31041928  1  -0.023218  0  -0.083497  -0.098386  0  3.974584  0
C  C57  1  0.06443419  0.15335432  0.53863612  1  0.403455  0  0.102732  0.153589  0  3.996017  0
C  C58  1  0.93064826  0.18615936  0.50161827  1  -0.023138  0  -0.116439  -0.266033  0  3.975763  0
C  C59  1  0.82127162  0.18620339  0.61174548  1  0.450487  0  0.022051  0.028981  0  4.035769  0
C  C60  1  0.06521139  0.83110475  0.94021351  1  1.588919  0  0.239738  0.678403  0  4.115924  0
C  C61  1  0.10465019  0.71849090  0.89962770  1  -0.036235  0  -0.020897  -0.049462  0  3.978142  0
C  C62  1  0.24665821  0.64141279  0.89628205  1  -0.068159  0  -0.077659  -0.132363  0  3.925677  0
C  C63  1  0.28416763  0.53637918  0.85707858  1  0.047908  0  -0.007609  0.04078  0  4.038242  0
C  C64  1  0.17541321  0.50725857  0.82581409  1  -0.077289  0  -0.085503  -0.114608  0  3.946366  0
C  C65  1  0.03326164  0.58301086  0.83139035  1  -0.048844  0  -0.087293  -0.073485  0  4.025174  0
C  C66  1  0.99786242  0.68958361  0.86628907  1  -0.025904  0  -0.08353  -0.098431  0  3.974507  0
C  C67  1  0.43556006  0.46137325  0.84663200  1  0.404015  0  0.102755  0.153523  0  3.995856  0
C  C68  1  0.56934537  0.49838861  0.81384172  1  -0.023575  0  -0.116533  -0.266237  0  3.975855  0
C  C69  1  0.67872335  0.38826617  0.81380547  1  0.450455  0  0.022132  0.029274  0  4.03578  0
N  N70  1  0.11856104  0.84630886  0.28844284  1  -0.743735  0  -0.310706  -0.303298  0  3.423524  0
N  N71  1  0.97146347  0.86491065  0.33517419  1  -0.839136  0  -0.273271  -0.09997  0  3.681914  0
N  N72  1  0.38143520  0.71154918  0.15369364  1  -0.743876  0  -0.310675  -0.303122  0  3.423366  0
N  N73  1  0.52853401  0.66481866  0.13509348  1  -0.839027  0  -0.273151  -0.099936  0  3.681942  0
N  N74  1  0.88144060  0.15369596  0.71155902  1  -0.743891  0  -0.310759  -0.303218  0  3.423588  0
N  N75  1  0.02853699  0.13509039  0.66482696  1  -0.838384  0  -0.273273  -0.099945  0  3.682159  0
N  N76  1  0.61856339  0.28845084  0.84631180  1  -0.74378  0  -0.310812  -0.303335  0  3.423559  0
N  N77  1  0.47146391  0.33517960  0.86490354  1  -0.839128  0  -0.273098  -0.099772  0  3.681785  0
N  N78  1  0.75000451  0.83165669  0.16834693  1  0.825545  0  0.092496  0.717055  0  4.393096  0
N  N79  1  0.25001351  0.16835120  0.83164425  1  0.8254  0  0.092442  0.717041  0  4.393345  0
O  O80  1  0.64217353  0.00796191  0.83280581  1  -1.207288  0  -0.416204  -0.691067  0  2.367059  0
O  O81  1  0.45643731  0.90471621  0.91883507  1  -1.202652  0  -0.41665  -0.69279  0  2.410185  0
O  O82  1  0.79908040  0.92559881  0.15572679  1  -0.579307  0  -0.197985  -0.483796  0  2.099363  0
O  O83  1  0.85782531  0.16719717  0.99205451  1  -1.207016  0  -0.41619  -0.690981  0  2.367109  0
O  O84  1  0.04358146  0.08117141  0.09527864  1  -1.202831  0  -0.416699  -0.6929  0  2.410133  0
O  O85  1  0.70091865  0.84427686  0.07441014  1  -0.579374  0  -0.197965  -0.48373  0  2.099308  0
O  O86  1  0.35782869  0.99204875  0.16718595  1  -1.207204  0  -0.416104  -0.690946  0  2.366722  0
O  O87  1  0.54357214  0.09528764  0.08117016  1  -1.20298  0  -0.416638  -0.69276  0  2.410631  0
O  O88  1  0.20093989  0.07440050  0.84426976  1  -0.57897  0  -0.198017  -0.483761  0  2.099256  0
O  O89  1  0.14218002  0.83280975  0.00793538  1  -1.206764  0  -0.416266  -0.69103  0  2.366557  0
O  O90  1  0.95642424  0.91882988  0.90470833  1  -1.203557  0  -0.416558  -0.692828  0  2.410388  0
O  O91  1  0.29909341  0.15572518  0.92559090  1  -0.579487  0  -0.197953  -0.483723  0  2.099364  0
O  O92  1  0.75001613  0.73511495  0.26488631  1  -0.468696  0  -0.1396  -0.363645  0  1.939437  0
O  O93  1  0.25000668  0.26488717  0.73511267  1  -0.468683  0  -0.139546  -0.363577  0  1.939848  0
