# generated using pymatgen
data_TbH9C14(NO5)2
_symmetry_space_group_name_H-M   'P 1'
_cell_length_a   9.17467614
_cell_length_b   8.99514335
_cell_length_c   9.43032762
_cell_angle_alpha   89.05447581
_cell_angle_beta   88.74085632
_cell_angle_gamma   82.45473084
_symmetry_Int_Tables_number   1
_chemical_formula_structural   TbH9C14(NO5)2
_chemical_formula_sum   'Tb2 H18 C28 N4 O20'
_cell_volume   771.26388551
_cell_formula_units_Z   2
loop_
 _symmetry_equiv_pos_site_id
 _symmetry_equiv_pos_as_xyz
  1  'x, y, z'
loop_
 _atom_site_type_symbol
 _atom_site_label
 _atom_site_symmetry_multiplicity
 _atom_site_fract_x
 _atom_site_fract_y
 _atom_site_fract_z
 _atom_site_occupancy
 _atom_site_pbe_bader_spin_density
 _atom_site_pbe_cm5_charge
 _atom_site_pbe_ddec_charge
 _atom_site_pbe_ddec_spin_density
 _atom_site_pbe_ddec_sum_bond_order
 _atom_site_pbe_magmom
Tb  Tb0  1  0.87693402  0.39645826  0.13223011  1  0  1.502923  1.982936  0  2.169472  0
Tb  Tb1  1  0.12306492  0.60354111  0.86777068  1  0  1.502944  1.982899  0  2.169499  0
H  H2  1  0.62543631  0.98619984  0.09567588  1  0  0.11414  0.123738  0  1.022766  0
H  H3  1  0.37456209  0.01380159  0.90431214  1  0  0.114142  0.123755  0  1.022708  0
H  H4  1  0.37142548  0.95638936  0.19095294  1  0  0.117326  0.114726  0  1.012647  0
H  H5  1  0.62857427  0.04360981  0.80903615  1  0  0.117325  0.114735  0  1.012636  0
H  H6  1  0.28165483  0.18246153  0.32972645  1  0  0.124573  0.139269  0  0.972712  0
H  H7  1  0.71834928  0.81753105  0.67027856  1  0  0.124549  0.139196  0  0.972825  0
H  H8  1  0.52613322  0.04315568  0.40966513  1  0  0.108691  0.113346  0  1.034603  0
H  H9  1  0.47387313  0.95684452  0.59032999  1  0  0.108704  0.113408  0  1.034492  0
H  H10  1  0.84578022  0.07801696  0.05645982  1  0  0.302567  0.405937  0  0.929129  0
H  H11  1  0.15421965  0.92198347  0.94353877  1  0  0.302556  0.405944  0  0.929125  0
H  H12  1  0.99213758  0.45071959  0.39218523  1  0  0.313697  0.402207  0  0.91219  0
H  H13  1  0.00786171  0.54927642  0.60781565  1  0  0.313717  0.402205  0  0.912128  0
H  H14  1  0.84260898  0.17421017  0.91933195  1  0  0.311913  0.40353  0  0.918366  0
H  H15  1  0.15738226  0.82578938  0.08066706  1  0  0.311924  0.403549  0  0.918342  0
H  H16  1  0.83024192  0.44753837  0.44678950  1  0  0.303931  0.404166  0  0.922081  0
H  H17  1  0.16975793  0.55246324  0.55321329  1  0  0.303926  0.404132  0  0.922129  0
H  H18  1  0.14435679  0.88128427  0.39128565  1  0  0.325397  0.400271  0  0.893543  0
H  H19  1  0.85564186  0.11871732  0.60871296  1  0  0.325412  0.400307  0  0.893496  0
C  C20  1  0.85920843  0.76479358  0.09066522  1  0  0.235047  0.588692  0  4.178963  0
C  C21  1  0.14079151  0.23520690  0.90933655  1  0  0.235038  0.588659  0  4.179021  0
C  C22  1  0.70105627  0.75143353  0.12875463  1  0  0.128469  0.132881  0  3.96172  0
C  C23  1  0.29894066  0.24856363  0.87124420  1  0  0.128495  0.132929  0  3.961605  0
C  C24  1  0.59568691  0.87758065  0.12898491  1  0  -0.071205  -0.126248  0  3.931161  0
C  C25  1  0.40431191  0.12241746  0.87100637  1  0  -0.071274  -0.126349  0  3.930992  0
C  C26  1  0.45608395  0.86048242  0.18053124  1  0  -0.05705  -0.03531  0  3.937155  0
C  C27  1  0.54391692  0.13951674  0.81945885  1  0  -0.057006  -0.03525  0  3.936958  0
C  C28  1  0.42395581  0.72040916  0.22900111  1  0  0.00735  -0.085561  0  3.873543  0
C  C29  1  0.57604489  0.27959347  0.77099631  1  0  0.00739  -0.085538  0  3.873463  0
C  C30  1  0.29031618  0.72123322  0.32253046  1  0  0.246445  0.597573  0  4.093646  0
C  C31  1  0.70968174  0.27877506  0.67746585  1  0  0.246458  0.59765  0  4.093897  0
C  C32  1  0.53123731  0.59431827  0.20686715  1  0  0.154281  0.208529  0  3.872919  0
C  C33  1  0.46876049  0.40568348  0.79314104  1  0  0.154292  0.208604  0  3.872838  0
C  C34  1  0.51300959  0.43492586  0.23851639  1  0  0.146448  0.193906  0  3.89968  0
C  C35  1  0.48699041  0.56507346  0.76148329  1  0  0.146456  0.193871  0  3.899686  0
C  C36  1  0.38012072  0.37171408  0.25002026  1  0  0.001776  -0.085171  0  3.862047  0
C  C37  1  0.61988255  0.62828634  0.74998348  1  0  0.001837  -0.085086  0  3.861996  0
C  C38  1  0.23939542  0.43907336  0.18128879  1  0  0.226456  0.6253  0  4.190225  0
C  C39  1  0.76060392  0.56092268  0.81871420  1  0  0.226442  0.625332  0  4.190468  0
C  C40  1  0.38479283  0.22951025  0.31428004  1  0  -0.055333  -0.036218  0  3.882144  0
C  C41  1  0.61520964  0.77048681  0.68572172  1  0  -0.055343  -0.036238  0  3.882285  0
C  C42  1  0.51833749  0.15190390  0.35657536  1  0  -0.07455  -0.129852  0  3.944183  0
C  C43  1  0.48166267  0.84809314  0.64342120  1  0  -0.074551  -0.129849  0  3.944244  0
C  C44  1  0.64686005  0.21246858  0.32139356  1  0  0.120279  0.1255  0  3.985355  0
C  C45  1  0.35314295  0.78753405  0.67860800  1  0  0.120247  0.125426  0  3.985417  0
C  C46  1  0.80084172  0.13784929  0.35669407  1  0  0.209379  0.557842  0  4.25598  0
C  C47  1  0.19916027  0.86215224  0.64330651  1  0  0.209487  0.558099  0  4.255686  0
N  N48  1  0.66752579  0.61395184  0.16101927  1  0  -0.356338  -0.348389  0  3.476419  0
N  N49  1  0.33247082  0.38604870  0.83898052  1  0  -0.35635  -0.348431  0  3.476381  0
N  N50  1  0.64224328  0.34944263  0.26251114  1  0  -0.379019  -0.383585  0  3.522559  0
N  N51  1  0.35775896  0.65055667  0.73749055  1  0  -0.379008  -0.383558  0  3.522542  0
O  O52  1  0.94319766  0.63944085  0.06772801  1  0  -0.437595  -0.739217  0  2.442462  0
O  O53  1  0.05680104  0.36056076  0.93227272  1  0  -0.437599  -0.739188  0  2.442486  0
O  O54  1  0.89990778  0.89122570  0.08248080  1  0  -0.274363  -0.491501  0  2.201564  0
O  O55  1  0.10009468  0.10877254  0.91752516  1  0  -0.274376  -0.491512  0  2.201551  0
O  O56  1  0.81165109  0.04064783  0.45479157  1  0  -0.324061  -0.54778  0  2.124899  0
O  O57  1  0.18835675  0.95936142  0.54521273  1  0  -0.324141  -0.547922  0  2.124638  0
O  O58  1  0.18854462  0.83887142  0.29824328  1  0  -0.311572  -0.474053  0  2.301514  0
O  O59  1  0.81145769  0.16113676  0.70175389  1  0  -0.311595  -0.474112  0  2.30158  0
O  O60  1  0.28352901  0.62993472  0.42062472  1  0  -0.25975  -0.481515  0  2.215301  0
O  O61  1  0.71647058  0.37006792  0.57937169  1  0  -0.259754  -0.481576  0  2.215481  0
O  O62  1  0.25028563  0.53575449  0.08366399  1  0  -0.36961  -0.637937  0  2.363124  0
O  O63  1  0.74971163  0.46424049  0.91633914  1  0  -0.369591  -0.637962  0  2.36331  0
O  O64  1  0.12250359  0.38618484  0.21957487  1  0  -0.369295  -0.628029  0  2.289236  0
O  O65  1  0.87749465  0.61381123  0.78042817  1  0  -0.369321  -0.628067  0  2.289318  0
O  O66  1  0.89076873  0.49683245  0.37695866  1  0  -0.619604  -0.812403  0  2.019799  0
O  O67  1  0.10923123  0.50316804  0.62304417  1  0  -0.619619  -0.812344  0  2.019788  0
O  O68  1  0.80608077  0.17851886  0.01777105  1  0  -0.641952  -0.850714  0  2.14417  0
O  O69  1  0.19391391  0.82147951  0.98222997  1  0  -0.641956  -0.850716  0  2.144165  0
O  O70  1  0.90589697  0.18822546  0.28848934  1  0  -0.399815  -0.626892  0  2.268545  0
O  O71  1  0.09410608  0.81177602  0.71151013  1  0  -0.399837  -0.626978  0  2.268612  0
