# generated using pymatgen
data_NdAgH12C14N2O11
_symmetry_space_group_name_H-M   'P 1'
_cell_length_a   7.29591347
_cell_length_b   13.93941246
_cell_length_c   19.46565118
_cell_angle_alpha   102.63796068
_cell_angle_beta   90.00032702
_cell_angle_gamma   89.99911178
_symmetry_Int_Tables_number   1
_chemical_formula_structural   NdAgH12C14N2O11
_chemical_formula_sum   'Nd4 Ag4 H48 C56 N8 O44'
_cell_volume   1931.70783056
_cell_formula_units_Z   4
loop_
 _symmetry_equiv_pos_site_id
 _symmetry_equiv_pos_as_xyz
  1  'x, y, z'
loop_
 _atom_site_type_symbol
 _atom_site_label
 _atom_site_symmetry_multiplicity
 _atom_site_fract_x
 _atom_site_fract_y
 _atom_site_fract_z
 _atom_site_occupancy
 _atom_site_pbe_bader_charge
 _atom_site_pbe_bader_spin_density
 _atom_site_pbe_cm5_charge
 _atom_site_pbe_ddec_charge
 _atom_site_pbe_ddec_spin_density
 _atom_site_pbe_ddec_sum_bond_order
 _atom_site_pbe_magmom
Nd  Nd0  1  0.43052827  0.20115026  0.85661511  1  2.224166  0  1.484406  2.00608  0  2.182591  0
Nd  Nd1  1  0.93051327  0.29886700  0.64338930  1  2.224273  0  1.484389  2.00622  0  2.182343  0
Nd  Nd2  1  0.56949028  0.79885256  0.14338374  1  2.224235  0  1.484441  2.0061  0  2.182441  0
Nd  Nd3  1  0.06948472  0.70113348  0.35660666  1  2.224327  0  1.484327  2.006101  0  2.182455  0
Ag  Ag4  1  0.94137596  0.12533386  0.01917977  1  0.645117  0  0.445563  0.515128  0  1.636309  0
Ag  Ag5  1  0.44140146  0.37465606  0.48082721  1  0.644903  0  0.445514  0.515054  0  1.636427  0
Ag  Ag6  1  0.05859736  0.87466762  0.98082147  1  0.645104  0  0.44556  0.515114  0  1.636301  0
Ag  Ag7  1  0.55860064  0.62533334  0.51916628  1  0.644951  0  0.445577  0.515172  0  1.636149  0
H  H8  1  0.06634209  0.83553017  0.81567194  1  0.098097  0  0.116973  0.134542  0  0.982964  0
H  H9  1  0.56634267  0.66448917  0.68433365  1  0.144374  0  0.116927  0.134545  0  0.982866  0
H  H10  1  0.93363261  0.16445983  0.18433293  1  0.097899  0  0.116969  0.134624  0  0.983147  0
H  H11  1  0.43364162  0.33552096  0.31566563  1  0.144473  0  0.116962  0.134631  0  0.983123  0
H  H12  1  0.31092461  0.74316757  0.86733424  1  0.096695  0  0.111791  0.115639  0  0.989663  0
H  H13  1  0.81095318  0.75683537  0.63265990  1  0.096535  0  0.111764  0.115664  0  0.98965  0
H  H14  1  0.68905968  0.25682610  0.13265724  1  0.09683  0  0.111828  0.115669  0  0.989607  0
H  H15  1  0.18905989  0.24316159  0.36733869  1  0.096588  0  0.111807  0.115609  0  0.989567  0
H  H16  1  0.59419728  0.83637651  0.91924247  1  0.134503  0  0.113237  0.122892  0  1.030292  0
H  H17  1  0.09421457  0.66361923  0.58076266  1  0.134587  0  0.113236  0.122959  0  1.030324  0
H  H18  1  0.40577742  0.16361103  0.08075746  1  0.134568  0  0.113252  0.123012  0  1.030279  0
H  H19  1  0.90579850  0.33638051  0.41924709  1  0.134598  0  0.113252  0.122953  0  1.030266  0
H  H20  1  0.30500556  0.40228760  0.13492109  1  0.10602  0  0.112535  0.123908  0  0.986708  0
H  H21  1  0.80505618  0.09771096  0.36507699  1  0.106173  0  0.112595  0.123935  0  0.98675  0
H  H22  1  0.69499380  0.59770991  0.86507397  1  0.106094  0  0.112567  0.123892  0  0.986681  0
H  H23  1  0.19495004  0.90229770  0.63492211  1  0.106414  0  0.112547  0.123821  0  0.986792  0
H  H24  1  0.59229786  0.50586268  0.15138789  1  0.121429  0  0.112425  0.111584  0  1.018034  0
H  H25  1  0.09234929  0.99413040  0.34862918  1  0.121776  0  0.112498  0.111564  0  1.017955  0
H  H26  1  0.40768369  0.49414421  0.84860532  1  0.12137  0  0.112503  0.111745  0  1.017856  0
H  H27  1  0.90763500  0.00586463  0.65137430  1  0.122015  0  0.112526  0.111659  0  1.01793  0
H  H28  1  0.81854733  0.48470750  0.05058531  1  0.154593  0  0.116764  0.136029  0  1.015669  0
H  H29  1  0.31856243  0.01530662  0.44944722  1  0.154548  0  0.11679  0.135937  0  1.015714  0
H  H30  1  0.18148767  0.51528532  0.94941788  1  0.154486  0  0.116767  0.136074  0  1.015815  0
H  H31  1  0.68143557  0.98468893  0.55055221  1  0.154473  0  0.116759  0.135851  0  1.015753  0
H  H32  1  0.56461179  0.02826436  0.73469451  1  0.604826  0  0.333965  0.40941  0  0.862483  0
H  H33  1  0.06459953  0.47174682  0.76530584  1  0.605206  0  0.333994  0.409379  0  0.862437  0
H  H34  1  0.43538895  0.97173048  0.26530534  1  0.604769  0  0.333977  0.409437  0  0.862522  0
H  H35  1  0.93538887  0.52825602  0.23469352  1  0.605255  0  0.333984  0.409323  0  0.862565  0
H  H36  1  0.75563375  0.05176744  0.77380723  1  0.669943  0  0.295287  0.398586  0  0.939998  0
H  H37  1  0.25560787  0.44825933  0.72619912  1  0.670343  0  0.295273  0.39858  0  0.940007  0
H  H38  1  0.24436973  0.94824703  0.22619108  1  0.669873  0  0.295236  0.398433  0  0.940221  0
H  H39  1  0.74438876  0.55174408  0.27379723  1  0.670407  0  0.29529  0.398601  0  0.939965  0
H  H40  1  0.35366720  0.22828801  0.70274834  1  0.64771  0  0.301223  0.398977  0  0.938034  0
H  H41  1  0.85365678  0.27171932  0.79726388  1  0.647299  0  0.301211  0.398795  0  0.938278  0
H  H42  1  0.64632120  0.77171431  0.29725507  1  0.647612  0  0.301177  0.398889  0  0.938144  0
H  H43  1  0.14633573  0.72828042  0.20274587  1  0.647464  0  0.301179  0.398849  0  0.938175  0
H  H44  1  0.51328714  0.30614575  0.73233735  1  0.651176  0  0.302106  0.399808  0  0.935241  0
H  H45  1  0.01329549  0.19388265  0.76767750  1  0.650813  0  0.302224  0.399959  0  0.93506  0
H  H46  1  0.48671085  0.69385859  0.26766272  1  0.651191  0  0.302156  0.399837  0  0.935201  0
H  H47  1  0.98670114  0.80612702  0.23232687  1  0.650808  0  0.302179  0.399925  0  0.935103  0
H  H48  1  0.20287770  0.35103090  0.80970571  1  0.643967  0  0.298699  0.387406  0  0.953942  0
H  H49  1  0.70288569  0.14897604  0.69030412  1  0.643889  0  0.298837  0.387635  0  0.953664  0
H  H50  1  0.79712167  0.64897948  0.19029824  1  0.643504  0  0.29872  0.387424  0  0.953904  0
H  H51  1  0.29712053  0.85103350  0.30969766  1  0.643722  0  0.298793  0.387555  0  0.953745  0
H  H52  1  0.10709302  0.35958723  0.88368584  1  0.656688  0  0.294538  0.397997  0  0.942422  0
H  H53  1  0.60708778  0.14041635  0.61631514  1  0.656628  0  0.294573  0.398113  0  0.942255  0
H  H54  1  0.89291457  0.64041948  0.11631763  1  0.656621  0  0.29459  0.398063  0  0.94231  0
H  H55  1  0.39291844  0.85958453  0.38368859  1  0.656515  0  0.294538  0.398097  0  0.942284  0
C  C56  1  0.09229036  0.02949508  0.80233065  1  1.616061  0  0.228081  0.574973  0  4.199083  0
C  C57  1  0.59227798  0.47051414  0.69766436  1  1.616805  0  0.228203  0.575161  0  4.199113  0
C  C58  1  0.90772957  0.97050490  0.19766988  1  1.61677  0  0.228051  0.574906  0  4.199249  0
C  C59  1  0.40771728  0.52948457  0.30232572  1  1.616688  0  0.228144  0.575113  0  4.199003  0
C  C60  1  0.22417519  0.96946714  0.83581646  1  0.511484  0  0.119618  0.112786  0  3.990093  0
C  C61  1  0.72417943  0.53053354  0.66419110  1  0.511596  0  0.119654  0.112857  0  3.989832  0
C  C62  1  0.77581458  0.03051461  0.16418425  1  0.511713  0  0.119807  0.112978  0  3.989675  0
C  C63  1  0.27581308  0.46947080  0.33580897  1  0.512003  0  0.119678  0.112802  0  3.989909  0
C  C64  1  0.19264806  0.87101267  0.83780911  1  -0.033783  0  -0.076054  -0.142029  0  3.959541  0
C  C65  1  0.69265209  0.62899229  0.66219175  1  -0.079718  0  -0.075943  -0.141968  0  3.958769  0
C  C66  1  0.80735816  0.12897670  0.16218386  1  -0.033759  0  -0.076194  -0.142419  0  3.959745  0
C  C67  1  0.30735002  0.37101039  0.33780450  1  -0.080232  0  -0.076086  -0.142291  0  3.959426  0
C  C68  1  0.32809471  0.82077564  0.86696970  1  -0.055474  0  -0.070649  -0.042837  0  3.979061  0
C  C69  1  0.82811873  0.67923677  0.63302674  1  -0.05521  0  -0.070594  -0.042911  0  3.978265  0
C  C70  1  0.67191151  0.17921490  0.13303165  1  -0.055578  0  -0.070657  -0.042665  0  3.97917  0
C  C71  1  0.17190119  0.32077390  0.36696901  1  -0.055088  0  -0.070626  -0.042671  0  3.978664  0
C  C72  1  0.48529726  0.87133324  0.89557330  1  0.022799  0  -0.067311  -0.105251  0  3.881531  0
C  C73  1  0.98533467  0.62866223  0.60442996  1  0.022338  0  -0.067323  -0.105287  0  3.88176  0
C  C74  1  0.51468977  0.12867041  0.10442771  1  0.022596  0  -0.067391  -0.105505  0  3.881317  0
C  C75  1  0.01468663  0.37132229  0.39556803  1  0.022303  0  -0.067338  -0.105277  0  3.881284  0
C  C76  1  0.50050840  0.97096040  0.89497354  1  0.518481  0  0.125674  0.13718  0  3.954401  0
C  C77  1  0.00051087  0.52904395  0.60502843  1  0.518723  0  0.125757  0.137242  0  3.95487  0
C  C78  1  0.49948000  0.02903643  0.10502246  1  0.518831  0  0.125814  0.137265  0  3.95434  0
C  C79  1  0.99949261  0.47095653  0.39496754  1  0.518749  0  0.125752  0.137131  0  3.954695  0
C  C80  1  0.65298597  0.03548238  0.93119052  1  1.586548  0  0.211827  0.560889  0  4.204732  0
C  C81  1  0.15300102  0.46450704  0.56881178  1  1.586087  0  0.211737  0.56098  0  4.204704  0
C  C82  1  0.34698461  0.96451978  0.06880978  1  1.586554  0  0.211549  0.560505  0  4.205316  0
C  C83  1  0.84702439  0.53547823  0.43118630  1  1.586331  0  0.211629  0.5607  0  4.205222  0
C  C84  1  0.21751115  0.26190818  0.01451591  1  1.573017  0  0.208516  0.55303  0  4.208454  0
C  C85  1  0.71751151  0.23808552  0.48548754  1  1.574012  0  0.208629  0.5533  0  4.208884  0
C  C86  1  0.78251426  0.73808462  0.98548676  1  1.573166  0  0.208589  0.55299  0  4.208383  0
C  C87  1  0.28248922  0.76191438  0.51451144  1  1.57281  0  0.208612  0.553189  0  4.20895  0
C  C88  1  0.37555073  0.33288340  0.02842505  1  0.478386  0  0.122109  0.120905  0  3.977236  0
C  C89  1  0.87554887  0.16712220  0.47159259  1  0.476893  0  0.12212  0.121114  0  3.977106  0
C  C90  1  0.62443767  0.66713100  0.97157222  1  0.478833  0  0.12212  0.12096  0  3.976856  0
C  C91  1  0.12443953  0.83287787  0.52840949  1  0.477049  0  0.122048  0.121023  0  3.977533  0
C  C92  1  0.40555748  0.39782193  0.09302873  1  -0.063075  0  -0.06698  -0.11996  0  3.913905  0
C  C93  1  0.90560039  0.10219185  0.40698232  1  -0.062677  0  -0.067049  -0.120126  0  3.913565  0
C  C94  1  0.59441584  0.60219441  0.90696365  1  -0.06332  0  -0.067038  -0.119871  0  3.913431  0
C  C95  1  0.09439486  0.89780223  0.59301692  1  -0.062898  0  -0.066964  -0.119914  0  3.913591  0
C  C96  1  0.56532835  0.45424370  0.10180899  1  0.031814  0  -0.061675  -0.022973  0  3.929836  0
C  C97  1  0.06535545  0.04574923  0.39821258  1  0.031963  0  -0.061781  -0.023067  0  3.93011  0
C  C98  1  0.43466416  0.54575694  0.89819008  1  0.031814  0  -0.06173  -0.023249  0  3.93002  0
C  C99  1  0.93463843  0.95424727  0.60179109  1  0.031544  0  -0.061798  -0.023168  0  3.929903  0
C  C100  1  0.69046113  0.44369465  0.04637145  1  0.014679  0  -0.061539  -0.109411  0  3.872157  0
C  C101  1  0.19050250  0.05631725  0.45364101  1  0.01454  0  -0.061484  -0.109061  0  3.87291  0
C  C102  1  0.30954508  0.55631611  0.95362586  1  0.014872  0  -0.061472  -0.109321  0  3.872312  0
C  C103  1  0.80949276  0.94367637  0.54636331  1  0.014763  0  -0.061448  -0.109015  0  3.872673  0
C  C104  1  0.64790723  0.37832516  0.98312871  1  0.45441  0  0.122518  0.110639  0  3.988297  0
C  C105  1  0.14790969  0.12165875  0.51687903  1  0.45328  0  0.122362  0.110444  0  3.988507  0
C  C106  1  0.35210996  0.62167580  0.01687657  1  0.454345  0  0.122401  0.110571  0  3.988276  0
C  C107  1  0.85209790  0.87833400  0.48312261  1  0.453683  0  0.122353  0.110407  0  3.988406  0
C  C108  1  0.77340874  0.36167762  0.91996641  1  1.611307  0  0.230197  0.570371  0  4.203537  0
C  C109  1  0.27340895  0.13831169  0.58005204  1  1.610951  0  0.230182  0.570295  0  4.203002  0
C  C110  1  0.22661803  0.63830957  0.08004067  1  1.610804  0  0.230096  0.57035  0  4.203473  0
C  C111  1  0.72659178  0.86168641  0.41995441  1  1.610278  0  0.230172  0.570344  0  4.202799  0
N  N112  1  0.37486564  0.01753715  0.86388471  1  -1.260302  0  -0.373743  -0.369359  0  3.54202  0
N  N113  1  0.87489169  0.48246455  0.63612064  1  -1.260646  0  -0.373938  -0.369549  0  3.542212  0
N  N114  1  0.62510905  0.98246101  0.13610889  1  -1.260497  0  -0.373859  -0.369335  0  3.542065  0
N  N115  1  0.12511590  0.51753342  0.36388322  1  -1.260938  0  -0.373898  -0.369381  0  3.542383  0
N  N116  1  0.49377372  0.32482833  0.97470554  1  -1.227451  0  -0.378594  -0.353863  0  3.532672  0
N  N117  1  0.99377974  0.17515708  0.52529945  1  -1.225545  0  -0.378515  -0.353892  0  3.532817  0
N  N118  1  0.50622975  0.67518322  0.02529290  1  -1.227537  0  -0.378555  -0.353866  0  3.532875  0
N  N119  1  0.00622922  0.82483272  0.47470180  1  -1.225463  0  -0.378507  -0.353818  0  3.533076  0
O  O120  1  0.93532185  0.99438431  0.78619095  1  -1.180913  0  -0.306596  -0.53058  0  2.162465  0
O  O121  1  0.43532259  0.50563964  0.71381903  1  -1.181238  0  -0.306636  -0.530634  0  2.162277  0
O  O122  1  0.06469396  0.00562786  0.21381940  1  -1.181325  0  -0.306551  -0.530491  0  2.162089  0
O  O123  1  0.56468225  0.49436573  0.28617295  1  -1.181315  0  -0.306591  -0.530682  0  2.162172  0
O  O124  1  0.15491454  0.11180277  0.79300293  1  -1.190723  0  -0.358587  -0.622301  0  2.264012  0
O  O125  1  0.65489788  0.38819461  0.70698448  1  -1.190987  0  -0.358661  -0.622425  0  2.26404  0
O  O126  1  0.84510265  0.88819819  0.20700235  1  -1.191003  0  -0.358574  -0.622265  0  2.264259  0
O  O127  1  0.34510148  0.61180820  0.29301436  1  -1.190947  0  -0.358623  -0.622256  0  2.264121  0
O  O128  1  0.65285029  0.12480849  0.92607183  1  -1.180308  0  -0.376971  -0.640449  0  2.328343  0
O  O129  1  0.15282968  0.37518668  0.57392865  1  -1.180245  0  -0.376983  -0.640435  0  2.328672  0
O  O130  1  0.34715182  0.87519490  0.07392400  1  -1.18025  0  -0.37689  -0.640283  0  2.328372  0
O  O131  1  0.84716695  0.62480076  0.42606921  1  -1.180217  0  -0.376835  -0.640227  0  2.328353  0
O  O132  1  0.76792127  0.99843903  0.96717124  1  -1.130184  0  -0.316505  -0.521424  0  2.364687  0
O  O133  1  0.26792617  0.50154335  0.53282784  1  -1.129961  0  -0.316402  -0.521461  0  2.364626  0
O  O134  1  0.23206713  0.00156463  0.03282976  1  -1.130436  0  -0.316313  -0.521234  0  2.365018  0
O  O135  1  0.73208142  0.49844080  0.46716291  1  -1.130022  0  -0.316429  -0.5214  0  2.364775  0
O  O136  1  0.10768298  0.25871403  0.06466484  1  -1.122272  0  -0.327053  -0.515063  0  2.229616  0
O  O137  1  0.60773866  0.24129849  0.43533315  1  -1.122072  0  -0.327033  -0.515097  0  2.23008  0
O  O138  1  0.89230268  0.74129390  0.93533415  1  -1.122399  0  -0.327153  -0.515064  0  2.229872  0
O  O139  1  0.39225659  0.75869970  0.56466097  1  -1.121899  0  -0.327053  -0.5151  0  2.230368  0
O  O140  1  0.20979582  0.20484522  0.95371281  1  -1.178391  0  -0.380143  -0.628128  0  2.315536  0
O  O141  1  0.70980546  0.29515989  0.54627726  1  -1.179769  0  -0.380245  -0.628335  0  2.315851  0
O  O142  1  0.79022685  0.79514753  0.04628883  1  -1.17845  0  -0.380157  -0.628121  0  2.315366  0
O  O143  1  0.29018980  0.70483748  0.45371522  1  -1.178836  0  -0.38022  -0.628314  0  2.315709  0
O  O144  1  0.71061646  0.30472396  0.86358982  1  -1.198542  0  -0.371546  -0.623227  0  2.276603  0
O  O145  1  0.21061723  0.19528917  0.63644191  1  -1.198052  0  -0.371383  -0.623343  0  2.275622  0
O  O146  1  0.28942128  0.69526558  0.13642013  1  -1.198409  0  -0.371499  -0.623302  0  2.276167  0
O  O147  1  0.78938213  0.80471756  0.36356207  1  -1.198201  0  -0.371425  -0.623352  0  2.275642  0
O  O148  1  0.92652129  0.40330469  0.92669842  1  -1.17371  0  -0.29699  -0.514084  0  2.180861  0
O  O149  1  0.42653085  0.09671001  0.57331233  1  -1.17381  0  -0.297018  -0.51399  0  2.181465  0
O  O150  1  0.07349864  0.59669336  0.07330700  1  -1.173482  0  -0.296946  -0.514079  0  2.181098  0
O  O151  1  0.57346714  0.90329718  0.42668657  1  -1.173447  0  -0.296984  -0.514034  0  2.181273  0
O  O152  1  0.63461753  0.08204487  0.76299908  1  -1.268872  0  -0.59385  -0.817129  0  2.076022  0
O  O153  1  0.13461464  0.41797275  0.73700945  1  -1.269695  0  -0.593781  -0.817015  0  2.075983  0
O  O154  1  0.36537499  0.91795792  0.23699924  1  -1.268741  0  -0.59382  -0.817047  0  2.076062  0
O  O155  1  0.86537239  0.58202721  0.26299056  1  -1.269833  0  -0.5938  -0.816949  0  2.076087  0
O  O156  1  0.43257022  0.25473484  0.74483714  1  -1.305979  0  -0.659971  -0.852938  0  2.085909  0
O  O157  1  0.93255992  0.24528495  0.75517429  1  -1.305299  0  -0.66003  -0.852891  0  2.085883  0
O  O158  1  0.56742778  0.74527466  0.25516412  1  -1.305938  0  -0.65997  -0.852877  0  2.085873  0
O  O159  1  0.06742026  0.75471514  0.24482831  1  -1.305451  0  -0.659941  -0.852893  0  2.085982  0
O  O160  1  0.22501802  0.34058681  0.85747016  1  -1.303896  0  -0.663404  -0.867844  0  2.140946  0
O  O161  1  0.72501399  0.15941693  0.64253775  1  -1.303635  0  -0.663546  -0.868146  0  2.140484  0
O  O162  1  0.77498683  0.65941554  0.14253376  1  -1.30335  0  -0.663478  -0.867891  0  2.140858  0
O  O163  1  0.27499634  0.84058452  0.35746297  1  -1.303424  0  -0.663479  -0.868068  0  2.140663  0
