# generated using pymatgen
data_NiH8C9N3O4
_symmetry_space_group_name_H-M   'P 1'
_cell_length_a   7.40237106
_cell_length_b   14.02820323
_cell_length_c   14.02817467
_cell_angle_alpha   97.32523878
_cell_angle_beta   101.88573172
_cell_angle_gamma   101.88558207
_symmetry_Int_Tables_number   1
_chemical_formula_structural   NiH8C9N3O4
_chemical_formula_sum   'Ni4 H32 C36 N12 O16'
_cell_volume   1372.78349519
_cell_formula_units_Z   4
loop_
 _symmetry_equiv_pos_site_id
 _symmetry_equiv_pos_as_xyz
  1  'x, y, z'
loop_
 _atom_site_type_symbol
 _atom_site_label
 _atom_site_symmetry_multiplicity
 _atom_site_fract_x
 _atom_site_fract_y
 _atom_site_fract_z
 _atom_site_occupancy
 _atom_site_pbe_bader_charge
 _atom_site_pbe_bader_spin_density
 _atom_site_pbe_cm5_charge
 _atom_site_pbe_ddec_charge
 _atom_site_pbe_ddec_spin_density
 _atom_site_pbe_ddec_sum_bond_order
 _atom_site_pbe_magmom
Ni  Ni0  1  0.75000095  0.41233727  0.58766288  1  1.19516  1.607146  0.647811  0.885363  1.812064  2.308477  1.574
Ni  Ni1  1  0.24999820  0.58766377  0.41233648  1  1.195164  1.607144  0.647811  0.885316  1.812062  2.30855  1.574
Ni  Ni2  1  0.50000075  0.99999939  0.00000074  1  1.154855  1.495252  0.669273  0.735979  1.714063  2.616411  1.482
Ni  Ni3  1  0.99999757  0.99999858  0.00000059  1  1.15487  1.495255  0.669289  0.736022  1.714066  2.616325  1.482
H  H4  1  0.12389948  0.48629884  0.60693077  1  0.644523  0.000853  0.298606  0.398632  0.000653  0.929926  0.001
H  H5  1  0.37610279  0.39306930  0.51370285  1  0.64454  0.000853  0.298502  0.398405  0.000653  0.930202  0.001
H  H6  1  0.87610106  0.51370221  0.39306803  1  0.644532  0.000853  0.298533  0.398455  0.000653  0.930137  0.001
H  H7  1  0.62389636  0.60693175  0.48629580  1  0.644549  0.000853  0.298519  0.398427  0.000653  0.930169  0.001
H  H8  1  0.05528147  0.40159967  0.51403936  1  0.654892  0.001012  0.296055  0.391339  0.000949  0.943729  0.002
H  H9  1  0.44472358  0.48596145  0.59840077  1  0.654896  0.001012  0.296069  0.391338  0.000949  0.943726  0.002
H  H10  1  0.94472012  0.59840064  0.48596017  1  0.654898  0.001012  0.296047  0.391289  0.000949  0.9438  0.002
H  H11  1  0.55527524  0.51403885  0.40159846  1  0.654897  0.001012  0.296075  0.391339  0.000949  0.943726  0.002
H  H12  1  0.96511789  0.95444538  0.78831783  1  0.123174  0.001605  0.121505  0.09538  0.000507  1.017287  0.001
H  H13  1  0.53488527  0.21168134  0.04555331  1  0.123142  0.001606  0.121496  0.095314  0.000507  1.017308  0.001
H  H14  1  0.03488337  0.04555418  0.21168370  1  0.123164  0.001605  0.121515  0.095346  0.000507  1.017283  0.001
H  H15  1  0.46511426  0.78831749  0.95444509  1  0.12318  0.001606  0.121505  0.095322  0.000507  1.017329  0.001
H  H16  1  0.90558815  0.80772902  0.65236710  1  0.113204  0.000925  0.112503  0.124564  0.000415  0.988875  0.0
H  H17  1  0.59440938  0.34763065  0.19226995  1  0.113228  0.000925  0.112516  0.124563  0.000415  0.988913  0.0
H  H18  1  0.09441206  0.19227128  0.34763299  1  0.113195  0.000925  0.112497  0.124557  0.000415  0.988899  0.0
H  H19  1  0.40558668  0.65236965  0.80772756  1  0.113241  0.000925  0.11251  0.124553  0.000415  0.988962  0.0
H  H20  1  0.85962858  0.62085469  0.87086862  1  0.103106  0.001305  0.113511  0.124624  0.000662  0.988211  0.0
H  H21  1  0.64037151  0.12913032  0.37914594  1  0.103094  0.001305  0.113491  0.124644  0.000662  0.988159  0.0
H  H22  1  0.14037129  0.37914487  0.12913063  1  0.103114  0.001305  0.113505  0.12462  0.000662  0.988195  0.0
H  H23  1  0.35962660  0.87087145  0.62085483  1  0.103051  0.001305  0.113511  0.124656  0.000662  0.988142  0.0
H  H24  1  0.91260602  0.77427159  0.99740340  1  0.092912  0.001651  0.119375  0.089618  0.000577  1.002818  0.001
H  H25  1  0.58739274  0.00259644  0.22572825  1  0.092903  0.001651  0.11937  0.089597  0.000577  1.002822  0.001
H  H26  1  0.08739457  0.22572650  0.00259644  1  0.092919  0.001651  0.119367  0.089628  0.000577  1.002803  0.001
H  H27  1  0.41260609  0.99740385  0.77427312  1  0.092912  0.001651  0.119379  0.089652  0.000577  1.002791  0.001
H  H28  1  0.60075021  0.39168565  0.76343617  1  0.128456  0.003561  0.124777  0.102943  0.001374  0.973354  0.002
H  H29  1  0.89926161  0.23656641  0.60831801  1  0.128508  0.003561  0.12482  0.103  0.001374  0.973394  0.002
H  H30  1  0.39924999  0.60831466  0.23656178  1  0.128453  0.003561  0.12479  0.102968  0.001374  0.9734  0.002
H  H31  1  0.10074169  0.76343464  0.39168252  1  0.128529  0.003561  0.124825  0.102985  0.001374  0.973397  0.002
H  H32  1  0.58880397  0.27339664  0.88407136  1  0.10787  0.002033  0.109954  0.120741  0.001028  1.013384  0.001
H  H33  1  0.91119665  0.11592926  0.72660354  1  0.107857  0.002033  0.10995  0.120723  0.001028  1.013377  0.001
H  H34  1  0.41119280  0.72660218  0.11592674  1  0.107853  0.002033  0.109947  0.12076  0.001028  1.013368  0.001
H  H35  1  0.08880699  0.88407253  0.27339712  1  0.107861  0.002033  0.109948  0.120744  0.001028  1.013375  0.001
C  C36  1  0.94107707  0.87921698  0.80312902  1  0.501387  -0.00447  0.049341  0.098077  -0.005444  3.916647  -0.003
C  C37  1  0.55892437  0.19687028  0.12078216  1  0.501094  -0.00447  0.049379  0.09824  -0.005444  3.916607  -0.003
C  C38  1  0.05892281  0.12078258  0.19687165  1  0.50112  -0.00447  0.049327  0.098109  -0.005444  3.91658  -0.003
C  C39  1  0.44107550  0.80312928  0.87921780  1  0.501048  -0.00447  0.049411  0.098292  -0.005444  3.916716  -0.003
C  C40  1  0.90822572  0.79821918  0.72839888  1  -0.024155  0.005082  -0.078466  -0.142216  0.002817  3.96019  0.004
C  C41  1  0.59177252  0.27159988  0.20177884  1  -0.024162  0.005082  -0.078512  -0.142262  0.002817  3.960285  0.004
C  C42  1  0.09177587  0.20178112  0.27160208  1  -0.02415  0.005082  -0.078465  -0.142224  0.002817  3.960211  0.004
C  C43  1  0.40822459  0.72839967  0.79822083  1  -0.024156  0.005082  -0.0785  -0.142251  0.002817  3.960357  0.004
C  C44  1  0.87935191  0.70331767  0.75173189  1  -0.062936  -0.001737  -0.001544  0.007443  -0.003132  3.961613  0.0
C  C45  1  0.62064552  0.24826622  0.29668197  1  -0.062893  -0.001738  -0.001563  0.007308  -0.003132  3.961711  0.0
C  C46  1  0.12064830  0.29668264  0.24826749  1  -0.062916  -0.001737  -0.001565  0.007411  -0.003132  3.961615  0.0
C  C47  1  0.37935192  0.75173408  0.70331711  1  -0.06289  -0.001738  -0.001542  0.007329  -0.003132  3.961655  0.0
C  C48  1  0.88197782  0.69383023  0.85008939  1  0.016088  0.004735  -0.077763  -0.140874  0.00269  3.944472  0.004
C  C49  1  0.61802118  0.14990920  0.30616921  1  0.016097  0.004735  -0.077723  -0.140843  0.00269  3.944502  0.004
C  C50  1  0.11802172  0.30616860  0.14990972  1  0.016095  0.004735  -0.077733  -0.140842  0.00269  3.944424  0.004
C  C51  1  0.38197593  0.85009035  0.69383045  1  0.016113  0.004735  -0.077788  -0.140865  0.00269  3.944449  0.004
C  C52  1  0.91241882  0.77868092  0.92029666  1  0.457191  -0.003974  0.048353  0.0885  -0.00481  3.928658  -0.003
C  C53  1  0.58758202  0.07970264  0.22131905  1  0.457155  -0.003974  0.048364  0.08855  -0.004811  3.928611  -0.003
C  C54  1  0.08758072  0.22131790  0.07970316  1  0.456922  -0.003974  0.048364  0.088497  -0.00481  3.928569  -0.003
C  C55  1  0.41241785  0.92029692  0.77868163  1  0.456913  -0.003974  0.048328  0.088428  -0.004811  3.928568  -0.003
C  C56  1  0.84456737  0.61501256  0.67169958  1  1.565684  -0.002307  0.211894  0.574445  -0.002749  4.204418  -0.002
C  C57  1  0.65543223  0.32829951  0.38498766  1  1.565849  -0.002307  0.211903  0.57458  -0.002749  4.20425  -0.002
C  C58  1  0.15543317  0.38498848  0.32830065  1  1.565693  -0.002307  0.211868  0.574466  -0.002749  4.204368  -0.002
C  C59  1  0.34456692  0.67170153  0.61501099  1  1.56584  -0.002307  0.212017  0.574785  -0.00275  4.204201  -0.002
C  C60  1  0.66642991  0.32911128  0.75829884  1  0.453773  -0.003009  0.053632  0.096507  -0.003963  3.920878  -0.002
C  C61  1  0.83358173  0.24170293  0.67089090  1  0.453931  -0.003008  0.053589  0.096389  -0.003963  3.921086  -0.002
C  C62  1  0.33357102  0.67088755  0.24170185  1  0.453789  -0.00301  0.053649  0.096494  -0.003964  3.920922  -0.002
C  C63  1  0.16642400  0.75829738  0.32910979  1  0.453667  -0.003009  0.05362  0.096456  -0.003963  3.921106  -0.002
C  C64  1  0.66235793  0.26423698  0.82522035  1  0.074084  0.008851  -0.076554  -0.135545  0.005357  3.951897  0.007
C  C65  1  0.83764652  0.17477932  0.73576271  1  0.074085  0.008852  -0.076587  -0.135509  0.005357  3.951847  0.007
C  C66  1  0.33764055  0.73576259  0.17477803  1  0.074084  0.008852  -0.076608  -0.13566  0.005357  3.95192  0.007
C  C67  1  0.16235817  0.82522173  0.26423796  1  0.074113  0.008852  -0.07661  -0.135601  0.005357  3.951948  0.007
C  C68  1  0.75000039  0.18554143  0.81445752  1  -0.14115  0.005802  0.000308  0.010641  0.002583  3.946398  0.005
C  C69  1  0.25000087  0.81445814  0.18554259  1  -0.141172  0.005802  0.00027  0.010632  0.002583  3.946469  0.005
C  C70  1  0.74999831  0.11402987  0.88596949  1  1.610658  0.002517  0.217506  0.561855  0.00194  4.206971  0.002
C  C71  1  0.25000052  0.88597043  0.11403117  1  1.610668  0.002519  0.217532  0.561897  0.001942  4.206895  0.002
N  N72  1  0.94288387  0.87024018  0.89770822  1  -1.185049  0.066001  -0.3156  -0.199642  0.038755  3.55043  0.06
N  N73  1  0.55711655  0.10229173  0.12975870  1  -1.184764  0.066004  -0.315613  -0.199699  0.038756  3.550418  0.06
N  N74  1  0.05711534  0.12975790  0.10229219  1  -1.184505  0.066003  -0.315602  -0.199644  0.038756  3.550371  0.06
N  N75  1  0.44288299  0.89770709  0.87024184  1  -1.184485  0.066002  -0.3156  -0.199687  0.038756  3.550424  0.06
N  N76  1  0.75000704  0.31762346  0.68237754  1  -1.234765  0.110948  -0.321959  -0.204942  0.061568  3.59034  0.096
N  N77  1  0.24999593  0.68237686  0.31762214  1  -1.234509  0.110946  -0.321909  -0.204848  0.061565  3.590402  0.096
N  N78  1  0.25000105  0.04744414  0.95255618  1  -0.27856  0.078711  -0.309766  -0.545639  0.049527  3.260807  0.076
N  N79  1  0.75000060  0.95255320  0.04744652  1  -0.278137  0.07874  -0.309832  -0.545579  0.049543  3.260274  0.076
N  N80  1  0.25000018  0.10484556  0.89515346  1  -0.366679  0.008975  0.072662  0.408486  -0.003046  4.477313  -0.004
N  N81  1  0.74999948  0.89514730  0.10485414  1  -0.366606  0.008987  0.072666  0.408418  -0.003036  4.477283  -0.004
N  N82  1  0.24999935  0.16032443  0.83967297  1  -0.003749  0.132952  -0.197921  -0.387463  0.072161  2.587348  0.097
N  N83  1  0.75000124  0.83967364  0.16032901  1  -0.003966  0.132904  -0.197815  -0.387344  0.072132  2.587734  0.097
O  O84  1  0.02827098  0.42309789  0.57867433  1  -1.242937  0.054069  -0.573042  -0.768109  0.030231  2.171809  0.046
O  O85  1  0.47173185  0.42132589  0.57690373  1  -1.242839  0.054062  -0.572941  -0.767836  0.03023  2.171856  0.046
O  O86  1  0.97172851  0.57690390  0.42132517  1  -1.242952  0.05407  -0.572963  -0.76787  0.030231  2.171915  0.046
O  O87  1  0.52826697  0.57867441  0.42309550  1  -1.242813  0.054063  -0.572963  -0.76788  0.03023  2.171901  0.046
O  O88  1  0.82743338  0.53092175  0.69897939  1  -1.126408  0.066293  -0.306579  -0.533253  0.036356  2.317858  0.06
O  O89  1  0.67257015  0.30101908  0.46907961  1  -1.126605  0.066296  -0.306578  -0.533291  0.036358  2.317744  0.06
O  O90  1  0.17256854  0.46907930  0.30102027  1  -1.126451  0.066294  -0.306578  -0.533269  0.036357  2.317771  0.06
O  O91  1  0.32743072  0.69898271  0.53091862  1  -1.126674  0.066299  -0.30661  -0.533359  0.036359  2.317693  0.06
O  O92  1  0.83315964  0.62897036  0.58302247  1  -1.205078  0.009329  -0.320172  -0.590955  0.00467  2.222511  0.007
O  O93  1  0.66683629  0.41697481  0.37103100  1  -1.205023  0.009329  -0.320187  -0.591034  0.00467  2.222521  0.007
O  O94  1  0.16684123  0.37103143  0.41697575  1  -1.205049  0.009328  -0.320141  -0.590939  0.00467  2.222551  0.007
O  O95  1  0.33316181  0.58302698  0.62896621  1  -1.204959  0.009329  -0.320267  -0.591203  0.004671  2.22255  0.007
O  O96  1  0.63044223  0.11329126  0.93902983  1  -1.157947  0.067041  -0.298754  -0.534375  0.037627  2.456697  0.061
O  O97  1  0.86955420  0.06097118  0.88670901  1  -1.157899  0.067041  -0.298722  -0.534337  0.037627  2.456781  0.061
O  O98  1  0.36955798  0.88670904  0.06097026  1  -1.157928  0.067044  -0.298738  -0.53436  0.037629  2.45669  0.061
O  O99  1  0.13044529  0.93903059  0.11329263  1  -1.157928  0.067039  -0.298758  -0.534393  0.037626  2.456781  0.061
