# generated using pymatgen
data_Zn4H8C24S4N4O13F4
_symmetry_space_group_name_H-M   'P 1'
_cell_length_a   19.73501942
_cell_length_b   19.80704275
_cell_length_c   33.56672073
_cell_angle_alpha   78.40300771
_cell_angle_beta   78.61935710
_cell_angle_gamma   63.60049056
_symmetry_Int_Tables_number   1
_chemical_formula_structural   Zn4H8C24S4N4O13F4
_chemical_formula_sum   'Zn16 H32 C96 S16 N16 O52 F16'
_cell_volume   11425.28746457
_cell_formula_units_Z   4
loop_
 _symmetry_equiv_pos_site_id
 _symmetry_equiv_pos_as_xyz
  1  'x, y, z'
loop_
 _atom_site_type_symbol
 _atom_site_label
 _atom_site_symmetry_multiplicity
 _atom_site_fract_x
 _atom_site_fract_y
 _atom_site_fract_z
 _atom_site_occupancy
 _atom_site_pbe_bader_charge
 _atom_site_pbe_bader_spin_density
 _atom_site_pbe_cm5_charge
 _atom_site_pbe_ddec_charge
 _atom_site_pbe_ddec_spin_density
 _atom_site_pbe_ddec_sum_bond_order
 _atom_site_pbe_magmom
Zn  Zn0  1  0.05418879  0.40193008  0.47847452  1  1.31402  0  0.67285  0.962869  0  2.370443  0
Zn  Zn1  1  0.98520862  0.48337745  0.55998586  1  1.31585  0  0.676656  0.960617  0  2.381962  0
Zn  Zn2  1  0.05874169  0.56126806  0.48392528  1  1.318926  0  0.675201  0.962259  0  2.373602  0
Zn  Zn3  1  0.90208847  0.55350706  0.47818905  1  1.319177  0  0.674783  0.961224  0  2.378063  0
Zn  Zn4  1  0.69516484  0.34760275  0.27210712  1  1.317786  0  0.67265  0.962265  0  2.368124  0
Zn  Zn5  1  0.69007651  0.19003229  0.26610132  1  1.317292  0  0.674417  0.961527  0  2.375325  0
Zn  Zn6  1  0.76731247  0.26479189  0.19005076  1  1.318244  0  0.674769  0.961738  0  2.374137  0
Zn  Zn7  1  0.84786579  0.19711888  0.27200559  1  1.322323  0  0.676701  0.960609  0  2.381112  0
Zn  Zn8  1  0.26582236  0.76546067  0.69015200  1  1.32112  0  0.676138  0.958677  0  2.386582  0
Zn  Zn9  1  0.34858421  0.69723696  0.77124116  1  1.316766  0  0.674832  0.961452  0  2.375964  0
Zn  Zn10  1  0.19508313  0.84752815  0.77220190  1  1.317414  0  0.673053  0.963002  0  2.368526  0
Zn  Zn11  1  0.19010522  0.68989736  0.76614802  1  1.3167  0  0.674713  0.962046  0  2.374796  0
Zn  Zn12  1  0.55870355  0.06121684  0.98393250  1  1.319441  0  0.675133  0.961893  0  2.375419  0
Zn  Zn13  1  0.40281037  0.05348639  0.97735460  1  1.317129  0  0.676471  0.959995  0  2.383826  0
Zn  Zn14  1  0.55411109  0.90186167  0.97851460  1  1.315742  0  0.672716  0.962694  0  2.370054  0
Zn  Zn15  1  0.48401533  0.98399230  0.05998981  1  1.318048  0  0.674646  0.962355  0  2.373062  0
H  H16  1  0.79795739  0.53447580  0.42146161  1  0.489768  0  0.291822  0.302464  0  1.001896  0
H  H17  1  0.72404150  0.52837669  0.40489221  1  0.421604  0  0.295886  0.282747  0  0.969606  0
H  H18  1  0.94652926  0.21129616  0.33359491  1  0.475572  0  0.292523  0.303574  0  1.000361  0
H  H19  1  0.99632022  0.19360689  0.37395400  1  0.411788  0  0.296591  0.284009  0  0.96727  0
H  H20  1  0.71471320  0.45318277  0.32848509  1  0.485285  0  0.291407  0.302255  0  1.003  0
H  H21  1  0.72157463  0.52653326  0.34484581  1  0.412673  0  0.295895  0.282526  0  0.970307  0
H  H22  1  0.04007951  0.30304304  0.41617257  1  0.473867  0  0.290861  0.301948  0  1.002733  0
H  H23  1  0.05667339  0.25296430  0.37626184  1  0.437525  0  0.295887  0.282702  0  0.970295  0
H  H24  1  0.14555849  0.63605076  0.52180339  1  0.475492  0  0.291726  0.30254  0  1.001604  0
H  H25  1  0.21469728  0.65678576  0.53337234  1  0.430034  0  0.296558  0.283897  0  0.968513  0
H  H26  1  0.11394319  0.60426598  0.72834992  1  0.475981  0  0.291716  0.302567  0  1.001879  0
H  H27  1  0.09228428  0.53584689  0.71682592  1  0.423979  0  0.296034  0.283101  0  0.970223  0
H  H28  1  0.22357469  0.73274028  0.60969075  1  0.483857  0  0.292838  0.304297  0  0.998207  0
H  H29  1  0.18845635  0.74512163  0.56449391  1  0.423791  0  0.296722  0.283576  0  0.969011  0
H  H30  1  0.01712053  0.52644667  0.64038033  1  0.490617  0  0.292622  0.303689  0  0.998897  0
H  H31  1  0.00388659  0.56226083  0.68528652  1  0.44982  0  0.296942  0.283743  0  0.968271  0
H  H32  1  0.72330277  0.23300476  0.10949145  1  0.47921  0  0.291998  0.302793  0  1.000718  0
H  H33  1  0.68804621  0.24536813  0.06436888  1  0.421208  0  0.296321  0.282882  0  0.968635  0
H  H34  1  0.51689329  0.02695792  0.14050289  1  0.483005  0  0.291949  0.302431  0  1.001909  0
H  H35  1  0.50451566  0.06208109  0.18555279  1  0.421725  0  0.296321  0.282524  0  0.969189  0
H  H36  1  0.64566030  0.13561267  0.02177708  1  0.473467  0  0.292057  0.302753  0  1.00173  0
H  H37  1  0.71450433  0.15690203  0.03324915  1  0.429608  0  0.296303  0.283954  0  0.968202  0
H  H38  1  0.61471098  0.10412962  0.22827235  1  0.47032  0  0.292203  0.303006  0  1.001096  0
H  H39  1  0.59324258  0.03555882  0.21682052  1  0.430969  0  0.296191  0.283191  0  0.969388  0
H  H40  1  0.21506792  0.95253301  0.82848222  1  0.484914  0  0.29138  0.301906  0  1.002358  0
H  H41  1  0.22182594  0.02584364  0.84498968  1  0.423303  0  0.295965  0.282595  0  0.970267  0
H  H42  1  0.54043431  0.80231544  0.91621306  1  0.470817  0  0.29102  0.30152  0  1.003531  0
H  H43  1  0.55722234  0.75234737  0.87623227  1  0.436125  0  0.295893  0.282918  0  0.970139  0
H  H44  1  0.29852154  0.03423390  0.92114534  1  0.492807  0  0.292984  0.302877  0  1.000583  0
H  H45  1  0.22453630  0.02765127  0.90498209  1  0.428945  0  0.296868  0.283645  0  0.968104  0
H  H46  1  0.44670658  0.71059588  0.83367194  1  0.474647  0  0.291792  0.302819  0  1.00168  0
H  H47  1  0.49650265  0.69294280  0.87401627  1  0.443375  0  0.296092  0.282929  0  0.96859  0
C  C48  1  0.06141424  0.31657701  0.56160857  1  1.600586  0  0.218242  0.632579  0  4.215272  0
C  C49  1  0.07028648  0.56994784  0.56969835  1  1.450615  0  0.222278  0.621323  0  4.118174  0
C  C50  1  0.18273243  0.44041886  0.43909939  1  1.601208  0  0.21767  0.633489  0  4.21257  0
C  C51  1  0.93710764  0.68358350  0.43876383  1  1.590635  0  0.217861  0.630763  0  4.216098  0
C  C52  1  0.93047020  0.42981628  0.43026334  1  1.472138  0  0.222846  0.623568  0  4.113057  0
C  C53  1  0.81774996  0.56043577  0.56153026  1  1.61277  0  0.217586  0.631954  0  4.215567  0
C  C54  1  0.56637399  0.30983542  0.31133926  1  1.632717  0  0.217835  0.632581  0  4.21743  0
C  C55  1  0.68061770  0.17961158  0.18021443  1  1.450344  0  0.223215  0.622573  0  4.117315  0
C  C56  1  0.68944492  0.43201073  0.18847201  1  1.602101  0  0.217542  0.632982  0  4.212688  0
C  C57  1  0.93436248  0.18833609  0.18926940  1  1.572241  0  0.21815  0.631491  0  4.214428  0
C  C58  1  0.81898891  0.32114211  0.31974933  1  1.468408  0  0.222865  0.621479  0  4.117877  0
C  C59  1  0.81161868  0.06747997  0.31128593  1  1.584087  0  0.216721  0.630554  0  4.218263  0
C  C60  1  0.43305202  0.68998723  0.68808582  1  1.599015  0  0.218489  0.631989  0  4.215878  0
C  C61  1  0.31956383  0.82062017  0.81955004  1  1.452069  0  0.222838  0.622639  0  4.115913  0
C  C62  1  0.18830064  0.93233412  0.68872530  1  1.569617  0  0.217438  0.63144  0  4.214298  0
C  C63  1  0.06638362  0.80962804  0.81145313  1  1.633786  0  0.217638  0.631692  0  4.217324  0
C  C64  1  0.18013866  0.67948431  0.68043255  1  1.449978  0  0.222827  0.622214  0  4.11838  0
C  C65  1  0.31275185  0.56740483  0.81086361  1  1.582215  0  0.217444  0.633156  0  4.214338  0
C  C66  1  0.43757525  0.18380925  0.93862413  1  1.591863  0  0.217621  0.630328  0  4.21863  0
C  C67  1  0.43121234  0.92947448  0.92985303  1  1.469114  0  0.222429  0.622003  0  4.115329  0
C  C68  1  0.68269323  0.94034620  0.93916308  1  1.595877  0  0.217753  0.634227  0  4.212013  0
C  C69  1  0.56090833  0.81700039  0.06188696  1  1.60029  0  0.218259  0.632524  0  4.214941  0
C  C70  1  0.56965281  0.07026212  0.06980713  1  1.456724  0  0.222789  0.622091  0  4.114933  0
C  C71  1  0.31671600  0.06062735  0.06025672  1  1.580729  0  0.217272  0.633036  0  4.214539  0
C  C72  1  0.90226530  0.40229122  0.40228719  1  -0.005274  0  -0.040024  -0.250511  0  3.951166  0
C  C73  1  0.84719282  0.34867569  0.34770466  1  0.002612  0  -0.04025  -0.250348  0  3.95094  0
C  C74  1  0.82895466  0.44734171  0.38877017  1  0.458287  0  0.079014  0.173975  0  4.053631  0
C  C75  1  0.91979202  0.30290155  0.36191948  1  0.435866  0  0.078833  0.17361  0  4.055021  0
C  C76  1  0.80254508  0.42159600  0.36120332  1  0.445215  0  0.079263  0.175405  0  4.053031  0
C  C77  1  0.94758811  0.33003378  0.38811502  1  0.442012  0  0.079161  0.173278  0  4.055113  0
C  C78  1  0.09791786  0.59787523  0.59771473  1  0.031124  0  -0.039985  -0.248758  0  3.951016  0
C  C79  1  0.15217605  0.65193161  0.65240490  1  0.029987  0  -0.040689  -0.251697  0  3.950605  0
C  C80  1  0.14188241  0.64065510  0.58206093  1  0.446433  0  0.078472  0.172318  0  4.05542  0
C  C81  1  0.10929075  0.60806154  0.66804792  1  0.444763  0  0.079745  0.17518  0  4.055337  0
C  C82  1  0.16740312  0.66854579  0.60899838  1  0.417117  0  0.079686  0.175389  0  4.054035  0
C  C83  1  0.08129327  0.58264312  0.64110509  1  0.413016  0  0.078652  0.172898  0  4.056433  0
C  C84  1  0.30404756  0.45320325  0.40056920  1  0.606429  0  0.103899  0.256487  0  4.069968  0
C  C85  1  0.44516122  0.29688635  0.34994452  1  0.582533  0  0.104987  0.257581  0  4.068897  0
C  C86  1  0.25744535  0.41538038  0.41411953  1  -0.120543  0  -0.033988  -0.244022  0  3.964895  0
C  C87  1  0.49161428  0.33485882  0.33627715  1  -0.140616  0  -0.033777  -0.24425  0  3.961902  0
C  C88  1  0.37647846  0.33961044  0.37324185  1  -0.102657  0  -0.029351  -0.119039  0  4.118051  0
C  C89  1  0.37243646  0.41073917  0.37699910  1  -0.138158  0  -0.029608  -0.119896  0  4.12121  0
C  C90  1  0.72536212  0.57679460  0.62859746  1  0.62919  0  0.104788  0.258006  0  4.067977  0
C  C91  1  0.52525191  0.67359632  0.62092721  1  0.558329  0  0.105445  0.25839  0  4.067092  0
C  C92  1  0.74287081  0.58536103  0.58630981  1  -0.105176  0  -0.034874  -0.245026  0  3.965254  0
C  C93  1  0.50784786  0.66470912  0.66322498  1  -0.084756  0  -0.033792  -0.24465  0  3.963926  0
C  C94  1  0.60436633  0.64142899  0.60794122  1  -0.07839  0  -0.02906  -0.119158  0  4.118535  0
C  C95  1  0.64623927  0.60837911  0.64155960  1  -0.188789  0  -0.029326  -0.120554  0  4.121726  0
C  C96  1  0.07710263  0.22415282  0.62879209  1  0.553822  0  0.104348  0.256996  0  4.06947  0
C  C97  1  0.17307472  0.02467711  0.62152068  1  0.62458  0  0.105107  0.25837  0  4.068031  0
C  C98  1  0.08636304  0.24177227  0.58650402  1  -0.097892  0  -0.033201  -0.243822  0  3.962853  0
C  C99  1  0.16395012  0.00708391  0.66381336  1  -0.072335  0  -0.035076  -0.245156  0  3.966617  0
C  C100  1  0.14198155  0.10361847  0.60839525  1  -0.187491  0  -0.029274  -0.120113  0  4.120912  0
C  C101  1  0.10880969  0.14522434  0.64189706  1  -0.07275  0  -0.02907  -0.119147  0  4.119756  0
C  C102  1  0.84437258  0.80171021  0.39725362  1  0.574855  0  0.104141  0.257196  0  4.068398  0
C  C103  1  0.90429033  0.94943414  0.35284983  1  0.588679  0  0.103857  0.256831  0  4.069176  0
C  C104  1  0.91232616  0.75839232  0.41385798  1  -0.091496  0  -0.033686  -0.244579  0  3.96334  0
C  C105  1  0.83647233  0.99261075  0.33608390  1  -0.111094  0  -0.034169  -0.243971  0  3.96515  0
C  C106  1  0.90800164  0.87955833  0.37502206  1  -0.092731  0  -0.029216  -0.120052  0  4.120005  0
C  C107  1  0.84097572  0.87126611  0.37476749  1  -0.134373  0  -0.028963  -0.11905  0  4.119181  0
C  C108  1  0.65256110  0.15192151  0.15226270  1  0.022153  0  -0.04029  -0.249937  0  3.950065  0
C  C109  1  0.59783213  0.09787737  0.09774172  1  0.023224  0  -0.039823  -0.249359  0  3.94929  0
C  C110  1  0.66756151  0.16846940  0.10884977  1  0.401967  0  0.07877  0.173182  0  4.054503  0
C  C111  1  0.58148258  0.08267715  0.14115128  1  0.396019  0  0.078785  0.173237  0  4.054803  0
C  C112  1  0.64194941  0.14050193  0.08198979  1  0.450809  0  0.079081  0.173925  0  4.053971  0
C  C113  1  0.60975590  0.10799069  0.16801061  1  0.460393  0  0.079282  0.174448  0  4.053339  0
C  C114  1  0.67368437  0.52478177  0.12132784  1  0.592782  0  0.104416  0.257456  0  4.06804  0
C  C115  1  0.57671004  0.72412292  0.12898637  1  0.592371  0  0.104638  0.258134  0  4.069369  0
C  C116  1  0.66465401  0.50683890  0.16359542  1  -0.12465  0  -0.034768  -0.245163  0  3.964295  0
C  C117  1  0.58598317  0.74208472  0.08672456  1  -0.089137  0  -0.033556  -0.244473  0  3.962933  0
C  C118  1  0.60871275  0.64511747  0.14194142  1  -0.12511  0  -0.028865  -0.118299  0  4.118051  0
C  C119  1  0.64214664  0.60378455  0.10834469  1  -0.138727  0  -0.029189  -0.119761  0  4.119777  0
C  C120  1  0.08120359  0.12411690  0.17666637  1  0.565825  0  0.104797  0.256559  0  4.070976  0
C  C121  1  0.16987767  0.12433346  0.07280769  1  0.570907  0  0.104528  0.257706  0  4.067234  0
C  C122  1  0.00903824  0.16324644  0.16424842  1  -0.077085  0  -0.033871  -0.243926  0  3.961649  0
C  C123  1  0.24204091  0.08556747  0.08524730  1  -0.107252  0  -0.034896  -0.245697  0  3.96646  0
C  C124  1  0.11079793  0.13899606  0.10585338  1  -0.144063  0  -0.029456  -0.120216  0  4.119708  0
C  C125  1  0.14024306  0.10991634  0.14360452  1  -0.177177  0  -0.02917  -0.118773  0  4.119483  0
C  C126  1  0.34770019  0.84805847  0.84759747  1  -0.001675  0  -0.040067  -0.249895  0  3.950677  0
C  C127  1  0.40286036  0.90175816  0.90206576  1  0.00015  0  -0.040012  -0.249829  0  3.948367  0
C  C128  1  0.30299363  0.92093990  0.86113920  1  0.458315  0  0.079357  0.174846  0  4.053528  0
C  C129  1  0.44809109  0.82940168  0.88799449  1  0.443957  0  0.079044  0.174829  0  4.052518  0
C  C130  1  0.32947052  0.94677473  0.88864596  1  0.458371  0  0.07914  0.173038  0  4.053547  0
C  C131  1  0.42028684  0.80226727  0.86182363  1  0.434847  0  0.078697  0.1726  0  4.054937  0
C  C132  1  0.40522098  0.44948010  0.85265328  1  0.522108  0  0.104077  0.257136  0  4.07047  0
C  C133  1  0.34502485  0.30194786  0.89706555  1  0.552841  0  0.104568  0.257968  0  4.069829  0
C  C134  1  0.33750774  0.49266314  0.83580677  1  -0.06829  0  -0.034755  -0.245475  0  3.967937  0
C  C135  1  0.41289522  0.25862776  0.91375657  1  -0.068766  0  -0.034036  -0.245342  0  3.964824  0
C  C136  1  0.34175450  0.37145490  0.87457504  1  -0.109382  0  -0.029167  -0.119194  0  4.120338  0
C  C137  1  0.40878296  0.37969509  0.87488701  1  -0.104658  0  -0.029181  -0.119908  0  4.120315  0
C  C138  1  0.94506675  0.79674477  0.84998336  1  0.581609  0  0.104595  0.256913  0  4.069865  0
C  C139  1  0.80401658  0.95307479  0.90062692  1  0.55869  0  0.104083  0.257024  0  4.069961  0
C  C140  1  0.99155951  0.83467636  0.83634597  1  -0.137311  0  -0.033453  -0.24344  0  3.960507  0
C  C141  1  0.75739318  0.91527406  0.91418427  1  -0.068996  0  -0.034522  -0.245228  0  3.967067  0
C  C142  1  0.87237322  0.91060760  0.87703901  1  -0.139247  0  -0.029288  -0.119804  0  4.122066  0
C  C143  1  0.87638281  0.83949624  0.87327328  1  -0.107611  0  -0.029415  -0.11867  0  4.119005  0
S  S144  1  0.29754652  0.32586919  0.39788329  1  0.295957  0  0.097402  0.176852  0  2.750277  0
S  S145  1  0.45110414  0.42472051  0.35215625  1  0.313549  0  0.1001  0.180492  0  2.747761  0
S  S146  1  0.66126152  0.63301573  0.56152707  1  0.29753  0  0.098405  0.177957  0  2.747758  0
S  S147  1  0.58942070  0.61622843  0.68797526  1  0.31361  0  0.100951  0.182361  0  2.748482  0
S  S148  1  0.13472463  0.16053333  0.56192539  1  0.308678  0  0.099707  0.180468  0  2.747665  0
S  S149  1  0.11645826  0.08833510  0.68838728  1  0.29768  0  0.097611  0.177181  0  2.74973  0
S  S150  1  0.97377526  0.80312904  0.40201999  1  0.3143  0  0.100991  0.182124  0  2.747658  0
S  S151  1  0.77545875  0.94738776  0.34749049  1  0.308404  0  0.098253  0.177913  0  2.74895  0
S  S152  1  0.61658807  0.58790043  0.18833425  1  0.307656  0  0.096919  0.176123  0  2.749481  0
S  S153  1  0.63471457  0.66105843  0.06197788  1  0.310687  0  0.099686  0.180306  0  2.747839  0
S  S154  1  0.01275076  0.18324841  0.11106862  1  0.348682  0  0.101096  0.181824  0  2.745643  0
S  S155  1  0.23832403  0.06628121  0.13842404  1  0.35218  0  0.09869  0.178488  0  2.748459  0
S  S156  1  0.27635291  0.44759465  0.84723493  1  0.313288  0  0.099029  0.179082  0  2.75068  0
S  S157  1  0.47439104  0.30331615  0.90199837  1  0.307264  0  0.100504  0.181703  0  2.747324  0
S  S158  1  0.95107391  0.92454183  0.85221537  1  0.315068  0  0.100007  0.180304  0  2.747653  0
S  S159  1  0.79744319  0.82577782  0.89793832  1  0.294308  0  0.097167  0.176579  0  2.750757  0
N  N160  1  0.77996688  0.51885256  0.39993937  1  -1.248688  0  -0.612322  -0.617729  0  3.334972  0
N  N161  1  0.96887617  0.23148113  0.35068294  1  -1.195046  0  -0.610406  -0.616191  0  3.335409  0
N  N162  1  0.73074015  0.47086309  0.34996746  1  -1.240129  0  -0.613852  -0.621217  0  3.338618  0
N  N163  1  0.01926780  0.28068306  0.39944564  1  -1.227627  0  -0.612427  -0.61887  0  3.336817  0
N  N164  1  0.16087352  0.65991798  0.54054661  1  -1.23575  0  -0.612811  -0.619928  0  3.337731  0
N  N165  1  0.08988070  0.58923507  0.70953739  1  -1.231996  0  -0.61218  -0.618671  0  3.338938  0
N  N166  1  0.20914555  0.70976876  0.59006177  1  -1.21976  0  -0.611168  -0.617194  0  3.336416  0
N  N167  1  0.03980595  0.54115129  0.66006144  1  -1.250206  0  -0.611373  -0.617178  0  3.338131  0
N  N168  1  0.70915109  0.20985539  0.08982214  1  -1.206145  0  -0.612532  -0.618134  0  3.335881  0
N  N169  1  0.54004246  0.04116305  0.16018444  1  -1.211643  0  -0.612445  -0.617238  0  3.337296  0
N  N170  1  0.66079909  0.15973797  0.04046321  1  -1.235793  0  -0.612737  -0.619615  0  3.336681  0
N  N171  1  0.59059929  0.08903489  0.20952132  1  -1.232642  0  -0.612268  -0.618581  0  3.337231  0
N  N172  1  0.23115540  0.97013898  0.84997010  1  -1.245988  0  -0.613194  -0.619669  0  3.33773  0
N  N173  1  0.51971183  0.78000749  0.89940482  1  -1.235034  0  -0.613505  -0.620121  0  3.337486  0
N  N174  1  0.28043050  0.01822031  0.89984348  1  -1.248614  0  -0.610972  -0.614767  0  3.336377  0
N  N175  1  0.46929294  0.73073130  0.85065165  1  -1.238225  0  -0.61223  -0.618096  0  3.337113  0
O  O176  1  0.00031027  0.49980725  0.49994926  1  -1.22963  0  -0.572767  -1.026631  0  2.549938  0
O  O177  1  0.08021976  0.31604996  0.52284932  1  -1.17741  0  -0.320626  -0.547573  0  2.31948  0
O  O178  1  0.03763681  0.52494754  0.58475260  1  -1.168153  0  -0.315917  -0.551364  0  2.382792  0
O  O179  1  0.15676743  0.50452434  0.45217351  1  -1.164151  0  -0.314984  -0.537341  0  2.320869  0
O  O180  1  0.02368529  0.37446860  0.58060547  1  -1.152641  0  -0.312875  -0.533246  0  2.325545  0
O  O181  1  0.15099706  0.39448799  0.44534315  1  -1.160375  0  -0.321287  -0.549577  0  2.322937  0
O  O182  1  0.07936365  0.59102137  0.53077060  1  -1.18537  0  -0.316967  -0.552983  0  2.377392  0
O  O183  1  0.00462398  0.65586758  0.44876182  1  -1.166083  0  -0.318988  -0.544489  0  2.322232  0
O  O184  1  0.89050261  0.49756522  0.44011487  1  -1.185693  0  -0.316739  -0.553083  0  2.380817  0
O  O185  1  0.88991931  0.65350563  0.44808252  1  -1.163329  0  -0.313781  -0.533485  0  2.322546  0
O  O186  1  0.99444627  0.38561270  0.44428779  1  -1.181512  0  -0.317032  -0.553637  0  2.376397  0
O  O187  1  0.87616934  0.53004927  0.58067730  1  -1.155976  0  -0.314013  -0.535774  0  2.324144  0
O  O188  1  0.81669914  0.57213277  0.52264640  1  -1.1771  0  -0.320684  -0.547929  0  2.322337  0
O  O189  1  0.74971805  0.25027061  0.25005319  1  -1.231225  0  -0.572392  -1.026122  0  2.54817  0
O  O190  1  0.59510192  0.35847014  0.30205043  1  -1.174605  0  -0.319982  -0.546641  0  2.32295  0
O  O191  1  0.66056302  0.16937891  0.21915699  1  -1.184338  0  -0.316771  -0.552241  0  2.379413  0
O  O192  1  0.72138419  0.37390689  0.16938549  1  -1.158888  0  -0.314615  -0.536785  0  2.321419  0
O  O193  1  0.59549481  0.24293776  0.30135789  1  -1.165355  0  -0.313486  -0.534558  0  2.323328  0
O  O194  1  0.67611271  0.43285849  0.22735246  1  -1.165628  0  -0.32105  -0.549037  0  2.32145  0
O  O195  1  0.72462108  0.21344897  0.16512816  1  -1.164301  0  -0.316489  -0.553082  0  2.380458  0
O  O196  1  0.87665069  0.22572681  0.16939208  1  -1.163299  0  -0.319581  -0.545431  0  2.318987  0
O  O197  1  0.86353491  0.25810374  0.30531376  1  -1.18603  0  -0.316307  -0.551767  0  2.383753  0
O  O198  1  0.93370569  0.17084199  0.22795892  1  -1.136243  0  -0.312785  -0.53274  0  2.324433  0
O  O199  1  0.75048299  0.36057666  0.31031158  1  -1.180959  0  -0.317003  -0.5526  0  2.37435  0
O  O200  1  0.74739848  0.09180172  0.29771724  1  -1.173805  0  -0.320364  -0.547577  0  2.322943  0
O  O201  1  0.85545042  0.10109082  0.30567738  1  -1.157584  0  -0.313825  -0.535372  0  2.325891  0
O  O202  1  0.24966961  0.75021915  0.75017207  1  -1.231436  0  -0.572627  -1.026022  0  2.549007  0
O  O203  1  0.37468964  0.72742377  0.66910297  1  -1.165996  0  -0.312592  -0.532341  0  2.325031  0
O  O204  1  0.36424788  0.75781022  0.80490067  1  -1.17745  0  -0.316294  -0.552461  0  2.380281  0
O  O205  1  0.17587887  0.93307495  0.72761587  1  -1.155259  0  -0.321699  -0.549575  0  2.321035  0
O  O206  1  0.43409133  0.67167426  0.72688366  1  -1.168907  0  -0.320026  -0.54592  0  2.321466  0
O  O207  1  0.21902547  0.87431608  0.66960164  1  -1.166396  0  -0.313773  -0.534248  0  2.324693  0
O  O208  1  0.25097495  0.86000247  0.81025698  1  -1.177967  0  -0.317338  -0.553532  0  2.375731  0
O  O209  1  0.09512858  0.85825524  0.80223922  1  -1.173861  0  -0.320159  -0.546827  0  2.322119  0
O  O210  1  0.16006903  0.66925450  0.71939284  1  -1.186745  0  -0.317088  -0.553057  0  2.377703  0
O  O211  1  0.09551932  0.74275384  0.80145108  1  -1.166607  0  -0.312811  -0.533398  0  2.32301  0
O  O212  1  0.22419107  0.71323641  0.66536978  1  -1.17058  0  -0.316035  -0.551341  0  2.385532  0
O  O213  1  0.35702612  0.60062660  0.80469517  1  -1.153472  0  -0.31509  -0.537631  0  2.322508  0
O  O214  1  0.24812396  0.59192715  0.79772196  1  -1.173601  0  -0.320416  -0.548263  0  2.324005  0
O  O215  1  0.50027234  0.99978776  0.99997346  1  -1.231409  0  -0.572693  -1.026466  0  2.548855  0
O  O216  1  0.50492424  0.15607692  0.94886128  1  -1.17121  0  -0.31914  -0.544875  0  2.323319  0
O  O217  1  0.39189088  0.99775269  0.93901352  1  -1.183034  0  -0.316026  -0.551429  0  2.382973  0
O  O218  1  0.65100284  0.89435936  0.94549305  1  -1.157105  0  -0.321362  -0.549928  0  2.322921  0
O  O219  1  0.39044063  0.15367014  0.94767500  1  -1.154953  0  -0.312383  -0.531568  0  2.324384  0
O  O220  1  0.65667472  0.00453984  0.95214682  1  -1.163853  0  -0.315265  -0.537575  0  2.321036  0
O  O221  1  0.49466303  0.88499082  0.94437517  1  -1.181707  0  -0.316882  -0.553459  0  2.375461  0
O  O222  1  0.57979648  0.81640556  0.02313866  1  -1.170077  0  -0.320276  -0.547047  0  2.322232  0
O  O223  1  0.53550678  0.02657273  0.08492764  1  -1.167551  0  -0.316388  -0.55262  0  2.379744  0
O  O224  1  0.52311007  0.87494275  0.08085099  1  -1.165155  0  -0.313237  -0.534006  0  2.32121  0
O  O225  1  0.57974347  0.09039952  0.03084310  1  -1.185277  0  -0.316871  -0.552684  0  2.378132  0
O  O226  1  0.31722944  0.07128329  0.02149725  1  -1.143184  0  -0.313896  -0.535964  0  2.325515  0
O  O227  1  0.37452334  0.03014452  0.08024258  1  -1.169033  0  -0.32077  -0.549071  0  2.321358  0
F  F228  1  0.28727459  0.52314265  0.40844959  1  -0.615044  0  -0.086011  -0.10347  0  1.348012  0
F  F229  1  0.46214143  0.22682038  0.34223172  1  -0.617036  0  -0.085003  -0.102267  0  1.349408  0
F  F230  1  0.77705280  0.54206092  0.65524993  1  -0.621759  0  -0.085796  -0.103392  0  1.347004  0
F  F231  1  0.47351750  0.70877710  0.59433780  1  -0.622734  0  -0.084538  -0.101798  0  1.348569  0
F  F232  1  0.04201712  0.27552648  0.65529624  1  -0.613955  0  -0.083619  -0.100459  0  1.349702  0
F  F233  1  0.20790729  0.97320231  0.59502829  1  -0.616054  0  -0.085642  -0.103288  0  1.346874  0
F  F234  1  0.78680908  0.78110345  0.40152938  1  -0.614344  0  -0.084824  -0.102365  0  1.348216  0
F  F235  1  0.96164577  0.97030542  0.34877601  1  -0.618936  0  -0.085253  -0.102658  0  1.346897  0
F  F236  1  0.70880393  0.47350783  0.09472231  1  -0.619121  0  -0.086396  -0.103849  0  1.347633  0
F  F237  1  0.54135522  0.77530346  0.15560558  1  -0.61235  0  -0.084957  -0.102666  0  1.347872  0
F  F238  1  0.09530160  0.10148804  0.21580799  1  -0.616862  0  -0.084078  -0.101091  0  1.349875  0
F  F239  1  0.15586329  0.14675059  0.03362427  1  -0.615895  0  -0.085406  -0.102971  0  1.346875  0
F  F240  1  0.46262809  0.47028005  0.84862195  1  -0.613849  0  -0.086127  -0.103895  0  1.347114  0
F  F241  1  0.28746466  0.28138998  0.90126604  1  -0.614162  0  -0.084003  -0.101424  0  1.349275  0
F  F242  1  0.96201164  0.72669726  0.84226734  1  -0.615114  0  -0.084624  -0.101867  0  1.349781  0
F  F243  1  0.78730159  0.02298654  0.90853465  1  -0.616553  0  -0.086174  -0.103717  0  1.347108  0
