# generated using pymatgen
data_CoH8C12(NO2)2
_symmetry_space_group_name_H-M   'P 1'
_cell_length_a   6.06170486
_cell_length_b   10.55620582
_cell_length_c   12.63168868
_cell_angle_alpha   90.00001045
_cell_angle_beta   90.00057709
_cell_angle_gamma   90.10169883
_symmetry_Int_Tables_number   1
_chemical_formula_structural   CoH8C12(NO2)2
_chemical_formula_sum   'Co2 H16 C24 N4 O8'
_cell_volume   808.28285306
_cell_formula_units_Z   2
loop_
 _symmetry_equiv_pos_site_id
 _symmetry_equiv_pos_as_xyz
  1  'x, y, z'
loop_
 _atom_site_type_symbol
 _atom_site_label
 _atom_site_symmetry_multiplicity
 _atom_site_fract_x
 _atom_site_fract_y
 _atom_site_fract_z
 _atom_site_occupancy
 _atom_site_pbe_bader_charge
 _atom_site_pbe_bader_spin_density
 _atom_site_pbe_cm5_charge
 _atom_site_pbe_ddec_charge
 _atom_site_pbe_ddec_spin_density
 _atom_site_pbe_ddec_sum_bond_order
 _atom_site_pbe_magmom
Co  Co0  1  0.83147322  0.73589582  0.25067687  1  1.226835  2.559248  0.680557  0.791848  2.795087  2.544657  2.522
Co  Co1  1  0.33152344  0.23588991  0.74931170  1  1.227536  2.559218  0.680495  0.791784  2.795094  2.545112  2.522
H  H2  1  0.21463491  0.89060922  0.49335418  1  0.101241  0.001132  0.113096  0.123103  0.000518  1.005046  0.0
H  H3  1  0.71466172  0.39060314  0.50666265  1  0.103766  0.001128  0.113095  0.123177  0.000517  1.005015  0.0
H  H4  1  0.84138070  0.09972265  0.99203166  1  0.108247  0.001269  0.114626  0.129168  0.000567  1.009747  0.0
H  H5  1  0.34141983  0.59968960  0.00798362  1  0.108407  0.00127  0.11464  0.129185  0.000567  1.009631  0.0
H  H6  1  0.81729621  0.10898438  0.49917036  1  0.129625  0.001263  0.115316  0.129346  0.000568  1.006391  0.0
H  H7  1  0.31733657  0.60895601  0.50078230  1  0.128872  0.001266  0.115268  0.129324  0.000568  1.00666  0.0
H  H8  1  0.38175617  0.75705793  0.35009647  1  0.152852  0.001921  0.124234  0.108877  0.000461  1.017252  0.002
H  H9  1  0.88182901  0.25704753  0.64991137  1  0.153413  0.001923  0.124265  0.108838  0.000461  1.017136  0.002
H  H10  1  0.70534339  0.96836231  0.14359294  1  0.115233  0.002576  0.117537  0.081219  0.001022  1.00811  0.001
H  H11  1  0.20538948  0.46836000  0.85639391  1  0.114271  0.002576  0.117581  0.081339  0.001021  1.00817  0.001
H  H12  1  0.27974440  0.75422035  0.14776145  1  0.178394  0.001896  0.124003  0.108156  0.00047  1.018273  0.002
H  H13  1  0.77975685  0.25417858  0.85225463  1  0.178056  0.001898  0.123852  0.107953  0.000471  1.018151  0.002
H  H14  1  0.95351542  0.97500484  0.34949392  1  0.07722  0.00263  0.117362  0.08097  0.001034  1.00603  0.001
H  H15  1  0.45359326  0.47500657  0.65046714  1  0.094788  0.002615  0.117477  0.08113  0.001034  1.005826  0.001
H  H16  1  0.44667369  0.88559637  0.00262696  1  0.122279  0.001102  0.112931  0.12251  0.000515  1.005501  0.0
H  H17  1  0.94668565  0.38553062  0.99741307  1  0.122309  0.001103  0.112888  0.12243  0.000516  1.005298  0.0
C  C18  1  0.15776378  0.00396210  0.98722387  1  -0.039025  -0.005968  0.007412  0.027773  -0.006993  3.932321  -0.004
C  C19  1  0.65779497  0.50393019  0.01279121  1  -0.039028  -0.005966  0.00751  0.027992  -0.006992  3.932349  -0.004
C  C20  1  0.37896812  0.91146183  0.46303716  1  -0.002994  0.004782  -0.075252  -0.140778  0.002181  3.934982  0.004
C  C21  1  0.87899727  0.41145662  0.53697886  1  -0.005307  0.004785  -0.075325  -0.140991  0.00218  3.934955  0.004
C  C22  1  0.94556247  0.02669031  0.02648635  1  0.06278  0.005599  -0.071048  -0.124464  0.002658  3.914218  0.005
C  C23  1  0.44559526  0.52666101  0.97352057  1  0.063113  0.0056  -0.071138  -0.124638  0.002659  3.913901  0.005
C  C24  1  0.71353503  0.03458409  0.46613805  1  -0.02938  0.005688  -0.071817  -0.124159  0.002685  3.914435  0.005
C  C25  1  0.21358310  0.53457550  0.53382429  1  -0.029407  0.005687  -0.071725  -0.124025  0.002686  3.914625  0.005
C  C26  1  0.40897797  0.08882782  0.59477342  1  1.585603  -0.001987  0.199313  0.545551  -0.002908  4.206903  -0.003
C  C27  1  0.90892918  0.58881351  0.40522315  1  1.584202  -0.001987  0.199649  0.54605  -0.002908  4.206565  -0.003
C  C28  1  0.47016879  0.83794110  0.38312004  1  0.405553  -0.002915  0.047052  0.086485  -0.00394  3.929368  -0.001
C  C29  1  0.97024429  0.33793644  0.61688597  1  0.405024  -0.002922  0.04722  0.08705  -0.003949  3.928706  -0.001
C  C30  1  0.50237901  0.01099871  0.50648766  1  0.014392  -0.005684  0.0076  0.027183  -0.006634  3.933528  -0.004
C  C31  1  0.00237156  0.51098101  0.49349664  1  0.015697  -0.005687  0.007624  0.026943  -0.006638  3.933602  -0.004
C  C32  1  0.86823398  0.95270611  0.10938171  1  0.388126  -0.003268  0.043189  0.078496  -0.003795  3.962019  -0.002
C  C33  1  0.36824897  0.45267547  0.89061455  1  0.389463  -0.003269  0.043197  0.078346  -0.003798  3.96161  -0.002
C  C34  1  0.19051688  0.83362285  0.11312700  1  0.418418  -0.003179  0.04679  0.085275  -0.004176  3.929043  -0.001
C  C35  1  0.69053192  0.33359047  0.88688883  1  0.418284  -0.003173  0.046784  0.08535  -0.00417  3.929082  -0.001
C  C36  1  0.79106404  0.95912582  0.38428303  1  0.454872  -0.002925  0.044041  0.079336  -0.003422  3.96201  -0.001
C  C37  1  0.29111807  0.45913059  0.61568123  1  0.437452  -0.002906  0.043833  0.079194  -0.003419  3.962323  -0.001
C  C38  1  0.28159627  0.90585552  0.03218639  1  -0.013251  0.00475  -0.075907  -0.141023  0.00216  3.934027  0.004
C  C39  1  0.78159477  0.40581169  0.96783393  1  -0.013506  0.004748  -0.075908  -0.141035  0.00216  3.934049  0.004
C  C40  1  0.25177380  0.08249126  0.89940691  1  1.563852  -0.002075  0.199514  0.545826  -0.002962  4.20734  -0.003
C  C41  1  0.75172791  0.58246714  0.10061744  1  1.564055  -0.002073  0.1995  0.545771  -0.002964  4.208003  -0.003
N  N42  1  0.98655979  0.85683595  0.15166998  1  -1.244107  0.06583  -0.340278  -0.259456  0.035178  3.65215  0.049
N  N43  1  0.48659035  0.35680626  0.84833455  1  -1.244392  0.065842  -0.340189  -0.259249  0.035184  3.651886  0.049
N  N44  1  0.67386517  0.86128954  0.34411544  1  -1.233008  0.066532  -0.341425  -0.260562  0.035489  3.65496  0.049
N  N45  1  0.17393824  0.36129413  0.65588057  1  -1.233515  0.066547  -0.341552  -0.261035  0.035501  3.655163  0.049
O  O46  1  0.12015519  0.16125497  0.85277080  1  -1.133592  0.099011  -0.315907  -0.527628  0.051138  2.286691  0.079
O  O47  1  0.62007722  0.66122429  0.14722539  1  -1.133323  0.098978  -0.315871  -0.527641  0.051127  2.287227  0.079
O  O48  1  0.45092699  0.07223510  0.87296829  1  -1.142235  0.051824  -0.303938  -0.522987  0.025941  2.112084  0.044
O  O49  1  0.95089396  0.57224970  0.12705852  1  -1.142383  0.051857  -0.303981  -0.52296  0.025959  2.11204  0.044
O  O50  1  0.54131163  0.16626932  0.64281487  1  -1.12894  0.098492  -0.316012  -0.528104  0.050933  2.286145  0.078
O  O51  1  0.04123200  0.66626079  0.35716989  1  -1.128368  0.098492  -0.316102  -0.528231  0.050942  2.286063  0.078
O  O52  1  0.20961148  0.07840886  0.62096265  1  -1.139535  0.052463  -0.302887  -0.52185  0.026214  2.115359  0.045
O  O53  1  0.70955968  0.57835199  0.37904092  1  -1.138932  0.052442  -0.303188  -0.522166  0.026201  2.115029  0.045
