# generated using pymatgen
data_Zn2H32C51(NO2)4
_symmetry_space_group_name_H-M   'P 1'
_cell_length_a   14.70608429
_cell_length_b   15.80273380
_cell_length_c   16.03666254
_cell_angle_alpha   89.52385509
_cell_angle_beta   106.70434986
_cell_angle_gamma   99.18289017
_symmetry_Int_Tables_number   1
_chemical_formula_structural   Zn2H32C51(NO2)4
_chemical_formula_sum   'Zn2 H32 C51 N4 O8'
_cell_volume   3521.06113900
_cell_formula_units_Z   1
loop_
 _symmetry_equiv_pos_site_id
 _symmetry_equiv_pos_as_xyz
  1  'x, y, z'
loop_
 _atom_site_type_symbol
 _atom_site_label
 _atom_site_symmetry_multiplicity
 _atom_site_fract_x
 _atom_site_fract_y
 _atom_site_fract_z
 _atom_site_occupancy
 _atom_site_pbe_bader_charge
 _atom_site_pbe_bader_spin_density
 _atom_site_pbe_cm5_charge
 _atom_site_pbe_ddec_charge
 _atom_site_pbe_ddec_spin_density
 _atom_site_pbe_ddec_sum_bond_order
 _atom_site_pbe_magmom
Zn  Zn0  1  0.59709954  0.48443108  0.52616167  1  1.289272  0  0.667928  0.820752  0  2.414432  0
Zn  Zn1  1  0.40413796  0.51413545  0.47676458  1  1.297609  0  0.676778  0.831289  0  2.436755  0
H  H2  1  0.61675991  0.60633018  0.95511088  1  0.026817  0  0.09473  0.095332  0  0.973185  0
H  H3  1  0.73722676  0.74579588  0.48141851  1  0.093873  0  0.107171  0.114263  0  0.996852  0
H  H4  1  0.61843686  0.61036462  0.10151508  1  0.017398  0  0.091186  0.086338  0  0.985482  0
H  H5  1  0.61236572  0.13983000  0.43223266  1  0.052297  0  0.10528  0.107291  0  1.005138  0
H  H6  1  0.34907320  0.85001481  0.44473792  1  0.101474  0  0.102288  0.105684  0  1.039217  0
H  H7  1  0.19269810  0.09092472  0.43491623  1  0.035414  0  0.098622  0.096665  0  1.000817  0
H  H8  1  0.98027576  0.67502978  0.35298755  1  0.079677  0  0.110812  0.112794  0  0.982197  0
H  H9  1  0.76772873  0.53780329  0.47437244  1  0.106558  0  0.126081  0.099667  0  1.004283  0
H  H10  1  0.69281078  0.34682104  0.63024747  1  0.149901  0  0.129623  0.107159  0  0.966273  0
H  H11  1  0.02376375  0.32716426  0.65260450  1  0.057871  0  0.111208  0.113472  0  0.981824  0
H  H12  1  0.14733081  0.69855558  0.33615251  1  0.074976  0  0.114575  0.121301  0  0.981061  0
H  H13  1  0.65516876  0.50888502  0.11507666  1  0.039222  0  0.091767  0.090889  0  0.980587  0
H  H14  1  0.30907494  0.65139135  0.37113989  1  0.115379  0  0.128074  0.103603  0  0.969413  0
H  H15  1  0.23775588  0.46756476  0.53530144  1  0.105999  0  0.126922  0.099298  0  1.003239  0
H  H16  1  0.86102929  0.59674595  0.41672164  1  0.082327  0  0.113292  0.114591  0  0.996163  0
H  H17  1  0.14357401  0.40691335  0.59050041  1  0.081973  0  0.11525  0.117015  0  0.992059  0
H  H18  1  0.85577696  0.30161294  0.66713744  1  0.080048  0  0.115272  0.122518  0  0.980564  0
H  H19  1  0.45143864  0.62432287  0.05034682  1  0.052513  0  0.10381  0.052377  0  0.945936  0
H  H20  1  0.43322526  0.61179430  0.90213495  1  0.050469  0  0.0999  0.106453  0  0.969502  0
H  H21  1  0.35205999  0.51495036  0.89139281  1  0.050099  0  0.096942  0.101543  0  0.97861  0
H  H22  1  0.52774235  0.37284179  0.08912236  1  0.044395  0  0.094462  0.095186  0  0.973861  0
H  H23  1  0.40506326  0.38177546  0.05245871  1  0.025005  0  0.089787  0.08118  0  0.997168  0
H  H24  1  0.65589544  0.50588463  0.96904535  1  0.020143  0  0.092789  0.090984  0  0.978403  0
H  H25  1  0.53516556  0.36934744  0.94500486  1  0.032025  0  0.093891  0.092882  0  0.977188  0
H  H26  1  0.32915814  0.53758427  0.09856620  1  0.384764  0  0.278192  0.271025  0  0.981577  0
H  H27  1  0.29665228  0.47558276  0.00957129  1  0.362089  0  0.275164  0.257673  0  0.990511  0
H  H28  1  0.41072593  0.37299700  0.90824207  1  0.025378  0  0.091406  0.088907  0  0.981906  0
H  H29  1  0.72535726  0.04163598  0.42982090  1  0.038306  0  0.101875  0.102522  0  0.99546  0
H  H30  1  0.53363700  0.21792063  0.46840506  1  0.077356  0  0.102858  0.106881  0  1.027715  0
H  H31  1  0.24540507  0.25030506  0.44794017  1  0.091067  0  0.103356  0.108736  0  1.000913  0
H  H32  1  0.23120053  0.94521083  0.42867620  1  0.023974  0  0.101193  0.100971  0  0.994337  0
H  H33  1  0.77205202  0.90134515  0.44960062  1  0.058228  0  0.103968  0.102455  0  0.990787  0
C  C34  1  0.58043530  0.66100101  0.51505846  1  1.581946  0  0.212936  0.587569  0  4.185911  0
C  C35  1  0.39347643  0.24150422  0.45956770  1  -0.00561  0  -0.019268  -0.026147  0  3.980496  0
C  C36  1  0.70406563  0.87430237  0.46163065  1  -0.121564  0  -0.083094  -0.120204  0  3.995808  0
C  C37  1  0.49672642  0.50944669  0.33764196  1  1.665088  0  0.216015  0.677851  0  4.234679  0
C  C38  1  0.68593294  0.78891715  0.47993665  1  0.061219  0  -0.08632  -0.100075  0  4.021044  0
C  C39  1  0.53212743  0.80867759  0.49909972  1  0.078835  0  0.014065  0.001286  0  3.987326  0
C  C40  1  0.54491473  0.89538638  0.47187614  1  -0.008249  0  0.010356  0.005426  0  3.878757  0
C  C41  1  0.63553310  0.92878046  0.45777860  1  0.023317  0  -0.006091  0.077692  0  4.03285  0
C  C42  1  0.47288138  0.95101743  0.45910698  1  0.065368  0  -0.002375  0.033704  0  3.944552  0
C  C43  1  0.50021115  0.04058173  0.45185673  1  -0.027103  0  0.001128  0.041885  0  3.947217  0
C  C44  1  0.59322424  0.07194507  0.44272618  1  -0.057985  0  -0.088121  -0.1224  0  4.022509  0
C  C45  1  0.60081883  0.54148076  0.97800981  1  -0.012685  0  -0.153254  -0.185708  0  3.851158  0
C  C46  1  0.65652295  0.01756972  0.44163591  1  -0.01325  0  -0.095589  -0.14273  0  4.033327  0
C  C47  1  0.37343027  0.91873928  0.44777940  1  -0.075654  0  -0.092967  -0.12683  0  4.016073  0
C  C48  1  0.30679861  0.97215216  0.43847955  1  -0.00077  0  -0.091182  -0.130666  0  4.017252  0
C  C49  1  0.42709278  0.33628324  0.47359626  1  1.551636  0  0.213226  0.593871  0  4.174339  0
C  C50  1  0.33420734  0.06288634  0.44318163  1  -0.070711  0  -0.006287  0.081407  0  4.024901  0
C  C51  1  0.43210686  0.09790667  0.45025386  1  0.020859  0  -0.004459  0.028188  0  3.952035  0
C  C52  1  0.26736593  0.11883680  0.44125284  1  -0.078324  0  -0.093635  -0.139328  0  4.012547  0
C  C53  1  0.29593595  0.20658920  0.44874719  1  0.034429  0  -0.087554  -0.096261  0  4.006167  0
C  C54  1  0.45932386  0.18783462  0.45905651  1  -0.043146  0  -0.081145  -0.134945  0  3.942987  0
C  C55  1  0.16403066  0.64652587  0.38019507  1  -0.002788  0  -0.075767  -0.172852  0  3.9583  0
C  C56  1  0.50120936  0.49754199  0.91976681  1  0.123437  0  -0.000553  0.173987  0  3.904829  0
C  C57  1  0.25294028  0.62147474  0.39894099  1  0.478138  0  0.053095  0.09575  0  3.937961  0
C  C58  1  0.21227645  0.51710740  0.49115745  1  0.546249  0  0.074476  0.078407  0  3.86443  0
C  C59  1  0.11886146  0.53676842  0.47566348  1  0.045953  0  0.005813  -0.010967  0  3.939872  0
C  C60  1  0.09397551  0.60376374  0.41744631  1  -0.0408  0  0.010854  0.110959  0  4.014209  0
C  C61  1  0.50122895  0.49207588  0.66337461  1  1.664552  0  0.219761  0.68351  0  4.223029  0
C  C62  1  0.04908015  0.49087358  0.51448137  1  -0.012259  0  0.007007  0.042064  0  3.95924  0
C  C63  1  0.95563977  0.51300894  0.49306514  1  0.017846  0  0.00526  0.038696  0  3.96093  0
C  C64  1  0.93305486  0.58015624  0.43412002  1  -0.070958  0  -0.075627  -0.109939  0  3.986347  0
C  C65  1  0.99938136  0.62418828  0.39797739  1  -0.012306  0  -0.080824  -0.127691  0  3.990231  0
C  C66  1  0.07152959  0.42340764  0.57304455  1  -0.022301  0  -0.072388  -0.104765  0  3.979008  0
C  C67  1  0.47957449  0.40562910  0.95154744  1  -0.021079  0  -0.153628  -0.186023  0  3.852369  0
C  C68  1  0.00485191  0.37854503  0.60827821  1  -0.084714  0  -0.080855  -0.12758  0  3.993177  0
C  C69  1  0.91016358  0.39871644  0.58852741  1  0.054869  0  0.00758  0.103992  0  4.023418  0
C  C70  1  0.88568774  0.46670613  0.53146499  1  -0.032446  0  0.003733  -0.010085  0  3.941212  0
C  C71  1  0.83932525  0.35436420  0.62401486  1  -0.003112  0  -0.079124  -0.179284  0  3.973852  0
C  C72  1  0.74992686  0.37857707  0.60454463  1  0.403107  0  0.049753  0.087701  0  3.945746  0
C  C73  1  0.60093582  0.54409921  0.07437510  1  -0.023866  0  -0.154457  -0.183894  0  3.874828  0
C  C74  1  0.79225385  0.48632711  0.51617714  1  0.580314  0  0.071907  0.074692  0  3.871424  0
C  C75  1  0.42484713  0.55713912  0.02640038  1  0.333448  0  0.008051  0.157007  0  3.827925  0
C  C76  1  0.42308284  0.54844528  0.92990169  1  -0.046463  0  -0.149951  -0.242402  0  3.817502  0
C  C77  1  0.50239452  0.49141781  0.75386006  1  0.182116  0  -0.064921  -0.223257  0  4.002653  0
C  C78  1  0.47641393  0.40973263  0.04697108  1  -0.04162  0  -0.154229  -0.177682  0  3.860046  0
C  C79  1  0.50086664  0.50396830  0.08261002  1  0.123679  0  -0.006015  0.102787  0  3.895459  0
C  C80  1  0.45569278  0.77865382  0.53624307  1  0.835207  0  0.174416  0.247886  0  4.053961  0
C  C81  1  0.50134448  0.49368859  0.82934473  1  -0.484885  0  -0.029234  -0.046321  0  4.043118  0
C  C82  1  0.50037748  0.50703112  0.17275214  1  -0.429221  0  -0.032301  -0.04983  0  4.083994  0
C  C83  1  0.49791231  0.50979173  0.24781351  1  0.093765  0  -0.067079  -0.22754  0  4.010389  0
C  C84  1  0.60029578  0.75527613  0.49947792  1  0.004187  0  -0.00046  -0.041768  0  3.91276  0
N  N85  1  0.27580495  0.55685616  0.45338357  1  -1.24498  0  -0.318826  -0.190182  0  3.538291  0
N  N86  1  0.72768046  0.44458105  0.55172554  1  -1.244075  0  -0.32174  -0.192761  0  3.542368  0
N  N87  1  0.39616950  0.76114245  0.57155723  1  -1.10917  0  -0.327659  -0.375238  0  2.687152  0
N  N88  1  0.32767080  0.53610254  0.03442975  1  -1.087207  0  -0.645749  -0.654476  0  3.193226  0
O  O89  1  0.64959993  0.61859839  0.53139207  1  -1.153995  0  -0.316203  -0.536883  0  2.253246  0
O  O90  1  0.49278532  0.63038158  0.50645435  1  -1.17067  0  -0.305023  -0.548321  0  2.420704  0
O  O91  1  0.57324532  0.49453930  0.39349757  1  -1.155835  0  -0.317998  -0.552676  0  2.283516  0
O  O92  1  0.41984931  0.52355277  0.35256696  1  -1.146142  0  -0.319284  -0.547883  0  2.248779  0
O  O93  1  0.51758600  0.36142699  0.50228241  1  -1.178223  0  -0.320571  -0.561993  0  2.337777  0
O  O94  1  0.36263406  0.38428641  0.45611943  1  -1.16921  0  -0.321156  -0.544576  0  2.305357  0
O  O95  1  0.58115754  0.48976773  0.64762257  1  -1.139372  0  -0.319353  -0.546646  0  2.261555  0
O  O96  1  0.42046878  0.49527520  0.60771046  1  -1.150712  0  -0.313562  -0.547201  0  2.273295  0
