# generated using pymatgen
data_CuPH4C5NO3
_symmetry_space_group_name_H-M   'P 1'
_cell_length_a   7.44293984
_cell_length_b   9.13155364
_cell_length_c   11.57384708
_cell_angle_alpha   100.35151503
_cell_angle_beta   104.38491877
_cell_angle_gamma   92.87030389
_symmetry_Int_Tables_number   1
_chemical_formula_structural   CuPH4C5NO3
_chemical_formula_sum   'Cu4 P4 H16 C20 N4 O12'
_cell_volume   745.84787861
_cell_formula_units_Z   4
loop_
 _symmetry_equiv_pos_site_id
 _symmetry_equiv_pos_as_xyz
  1  'x, y, z'
loop_
 _atom_site_type_symbol
 _atom_site_label
 _atom_site_symmetry_multiplicity
 _atom_site_fract_x
 _atom_site_fract_y
 _atom_site_fract_z
 _atom_site_occupancy
 _atom_site_pbe_bader_charge
 _atom_site_pbe_bader_spin_density
 _atom_site_pbe_cm5_charge
 _atom_site_pbe_ddec_charge
 _atom_site_pbe_ddec_spin_density
 _atom_site_pbe_ddec_sum_bond_order
 _atom_site_pbe_magmom
Cu  Cu0  1  0.15968679  0.12332782  0.51319108  1  1.148243  0.620025  0.775029  0.998351  0.773539  2.147323  0.618
Cu  Cu1  1  0.84031489  0.87666902  0.48681032  1  1.148321  0.620027  0.775026  0.998353  0.773536  2.147259  0.618
Cu  Cu2  1  0.64446892  0.06957922  0.71961340  1  1.099594  0.581457  0.755638  0.923863  0.724435  2.163693  0.579
Cu  Cu3  1  0.35552893  0.93041991  0.28038599  1  1.099613  0.581458  0.755625  0.923818  0.724435  2.163668  0.579
P  P4  1  0.35564167  0.83510692  0.52443172  1  3.428349  0.007443  0.332441  1.283221  0.013349  5.388625  0.004
P  P5  1  0.64435758  0.16489220  0.47556616  1  3.428342  0.007443  0.332431  1.283238  0.013349  5.388547  0.004
P  P6  1  0.03182423  0.08291256  0.73866311  1  3.413149  0.007601  0.307708  1.235222  0.013231  5.421486  0.005
P  P7  1  0.96817625  0.91708542  0.26133394  1  3.413093  0.007601  0.307711  1.235114  0.013231  5.421534  0.005
H  H8  1  0.32743617  0.56029339  0.33782301  1  0.114874  0.001257  0.114262  0.130052  0.000568  0.978518  0.001
H  H9  1  0.67255477  0.43970584  0.66217440  1  0.114662  0.001257  0.11428  0.130072  0.000568  0.978453  0.001
H  H10  1  0.24604279  0.28950549  0.34265463  1  0.145192  0.002446  0.120049  0.102407  0.001086  1.022009  0.002
H  H11  1  0.75395505  0.71049364  0.65734734  1  0.14523  0.002445  0.120038  0.102351  0.001086  1.022076  0.002
H  H12  1  0.15080464  0.40153133  0.68248446  1  0.128181  0.002272  0.121465  0.10657  0.001026  0.999763  0.002
H  H13  1  0.84919629  0.59847000  0.31751833  1  0.128222  0.002273  0.121453  0.106559  0.001026  0.999665  0.002
H  H14  1  0.22764435  0.67714744  0.69282588  1  0.085203  0.001358  0.111801  0.118939  0.000664  0.995965  0.001
H  H15  1  0.77235555  0.32285615  0.30717447  1  0.085235  0.001358  0.111798  0.118941  0.000664  0.995919  0.001
H  H16  1  0.05481434  0.80331748  0.83044195  1  0.123426  0.001357  0.110905  0.12187  0.000733  1.004605  0.001
H  H17  1  0.94518645  0.19668274  0.16955806  1  0.123435  0.001357  0.110908  0.121844  0.000733  1.004632  0.001
H  H18  1  0.18981801  0.75289058  0.03935398  1  0.088002  0.001946  0.121694  0.100691  0.000768  0.982656  0.002
H  H19  1  0.81018278  0.24710963  0.96064690  1  0.088004  0.001946  0.121695  0.100701  0.000768  0.982635  0.002
H  H20  1  0.42236065  0.18976603  0.17048741  1  0.121757  0.001881  0.119988  0.104118  0.00083  1.009326  0.002
H  H21  1  0.57764152  0.81023416  0.82951368  1  0.121758  0.001881  0.119979  0.104107  0.00083  1.009325  0.002
H  H22  1  0.28986265  0.26124728  0.96803317  1  0.064478  0.001368  0.11399  0.12149  0.000694  0.973148  0.001
H  H23  1  0.71014059  0.73875066  0.03196605  1  0.064472  0.001368  0.113971  0.121479  0.000694  0.973116  0.001
C  C24  1  0.28607790  0.63923307  0.51597669  1  -0.495091  0.014151  0.001993  -0.10898  0.007473  3.909325  0.009
C  C25  1  0.71391751  0.36076834  0.48402348  1  -0.495179  0.014152  0.002057  -0.108842  0.007473  3.909348  0.009
C  C26  1  0.28765874  0.52936913  0.41534729  1  -0.046833  0.012898  -0.072596  -0.108169  0.008259  3.947528  0.009
C  C27  1  0.71233512  0.47063118  0.58465334  1  -0.046682  0.012897  -0.072659  -0.108268  0.008259  3.947497  0.009
C  C28  1  0.24251193  0.38030377  0.41693051  1  0.482002  -0.000859  0.046333  0.087613  -0.001302  3.922211  0.0
C  C29  1  0.75748469  0.61969650  0.58307143  1  0.481935  -0.000859  0.046343  0.087705  -0.001303  3.922134  0.0
C  C30  1  0.19031608  0.44346517  0.60899183  1  0.500339  -0.00129  0.047874  0.089987  -0.001865  3.923352  -0.001
C  C31  1  0.80967917  0.55653512  0.39100902  1  0.500529  -0.00129  0.047918  0.090084  -0.001865  3.923165  -0.001
C  C32  1  0.23381820  0.59440356  0.61362462  1  -0.059291  0.01086  -0.072202  -0.106841  0.006976  3.943466  0.007
C  C33  1  0.76617998  0.40559781  0.38637686  1  -0.059406  0.01086  -0.072216  -0.106928  0.006976  3.943584  0.007
C  C34  1  0.15718325  0.03758728  0.88289828  1  -0.442832  0.014921  0.00459  -0.089094  0.008778  3.885658  0.009
C  C35  1  0.84281739  0.96241181  0.11709982  1  -0.442842  0.014921  0.00458  -0.089108  0.008778  3.885644  0.009
C  C36  1  0.13680444  0.89183119  0.90322100  1  -0.062369  0.00627  -0.079131  -0.118363  0.004176  3.954328  0.005
C  C37  1  0.86320018  0.10816673  0.09677844  1  -0.062358  0.00627  -0.079158  -0.118328  0.004176  3.954324  0.005
C  C38  1  0.21298573  0.86255058  0.01806840  1  0.473694  0.00212  0.044376  0.081996  0.001141  3.968835  0.002
C  C39  1  0.78701506  0.13744963  0.98193161  1  0.473678  0.00212  0.044392  0.08199  0.001142  3.968806  0.002
C  C40  1  0.34027790  0.10893056  0.09158213  1  0.417052  0.001958  0.044165  0.087638  0.000849  3.926339  0.001
C  C41  1  0.65972428  0.89106963  0.90841551  1  0.417585  0.001958  0.044202  0.08765  0.000849  3.92619  0.001
C  C42  1  0.26644196  0.14647028  0.97933410  1  0.024401  0.006291  -0.075468  -0.11749  0.0043  3.957831  0.005
C  C43  1  0.73355868  0.85352882  0.02066400  1  0.024412  0.006291  -0.075461  -0.117462  0.0043  3.957638  0.005
N  N44  1  0.19690883  0.33833795  0.51252971  1  -1.212117  0.087856  -0.348784  -0.235049  0.056951  3.616756  0.074
N  N45  1  0.80309212  0.66166338  0.48747135  1  -1.212094  0.08786  -0.348807  -0.235139  0.056954  3.616715  0.074
N  N46  1  0.30984732  0.96991476  0.11171606  1  -1.206088  0.076545  -0.348526  -0.25269  0.04965  3.639456  0.065
N  N47  1  0.69015363  0.03008657  0.88828328  1  -1.206639  0.076543  -0.34852  -0.252691  0.049648  3.639462  0.065
O  O48  1  0.17310157  0.90956900  0.50840272  1  -1.399182  0.07128  -0.381596  -0.788093  0.042479  2.536562  0.062
O  O49  1  0.82689970  0.09043457  0.49159871  1  -1.39914  0.071278  -0.381559  -0.788081  0.042478  2.536548  0.062
O  O50  1  0.48715382  0.88114116  0.65318624  1  -1.391256  0.092542  -0.381627  -0.745585  0.056272  2.376175  0.079
O  O51  1  0.51284664  0.11885682  0.34681340  1  -1.391261  0.092538  -0.3816  -0.745547  0.05627  2.376208  0.079
O  O52  1  0.45401337  0.84359454  0.42277056  1  -1.396128  0.080889  -0.38242  -0.781937  0.047951  2.42618  0.069
O  O53  1  0.54598880  0.15640566  0.57723054  1  -1.396083  0.080896  -0.38245  -0.782017  0.047954  2.426103  0.069
O  O54  1  0.18296030  0.15502265  0.69154761  1  -1.379105  0.096272  -0.376008  -0.725569  0.058499  2.287285  0.082
O  O55  1  0.81704204  0.84497866  0.30845280  1  -1.379161  0.096267  -0.375999  -0.72553  0.058496  2.287236  0.082
O  O56  1  0.92863232  0.92941958  0.66734805  1  -1.391748  0.094787  -0.385356  -0.780885  0.056823  2.405099  0.082
O  O57  1  0.07137336  0.07057608  0.33265124  1  -1.39169  0.094786  -0.385333  -0.780872  0.056822  2.404999  0.082
O  O58  1  0.89101530  0.19424399  0.76841270  1  -1.37595  0.102093  -0.390599  -0.735236  0.061671  2.211548  0.087
O  O59  1  0.10898347  0.80575177  0.23158376  1  -1.375936  0.102096  -0.390629  -0.73524  0.061673  2.211531  0.087
