# generated using pymatgen
data_CuPH12C10SN4
_symmetry_space_group_name_H-M   'P 1'
_cell_length_a   8.84619680
_cell_length_b   11.47495270
_cell_length_c   13.26296735
_cell_angle_alpha   104.50601653
_cell_angle_beta   90.00026006
_cell_angle_gamma   89.99990182
_symmetry_Int_Tables_number   1
_chemical_formula_structural   CuPH12C10SN4
_chemical_formula_sum   'Cu4 P4 H48 C40 S4 N16'
_cell_volume   1303.40083837
_cell_formula_units_Z   4
loop_
 _symmetry_equiv_pos_site_id
 _symmetry_equiv_pos_as_xyz
  1  'x, y, z'
loop_
 _atom_site_type_symbol
 _atom_site_label
 _atom_site_symmetry_multiplicity
 _atom_site_fract_x
 _atom_site_fract_y
 _atom_site_fract_z
 _atom_site_occupancy
 _atom_site_hle17_bader_spin_density
 _atom_site_hle17_ddec_charge
 _atom_site_hle17_ddec_spin_density
 _atom_site_hle17_ddec_sum_bond_order
 _atom_site_hle17_magmom
 _atom_site_hse06_10hf_bader_spin_density
 _atom_site_hse06_10hf_ddec_charge
 _atom_site_hse06_10hf_ddec_spin_density
 _atom_site_hse06_10hf_ddec_sum_bond_order
 _atom_site_hse06_10hf_magmom
 _atom_site_hse06_bader_spin_density
 _atom_site_hse06_ddec_charge
 _atom_site_hse06_ddec_spin_density
 _atom_site_hse06_ddec_sum_bond_order
 _atom_site_hse06_magmom
 _atom_site_pbe_bader_spin_density
 _atom_site_pbe_cm5_charge
 _atom_site_pbe_ddec_charge
 _atom_site_pbe_ddec_spin_density
 _atom_site_pbe_ddec_sum_bond_order
 _atom_site_pbe_magmom
Cu  Cu0  1  0.46969537  0.60661020  0.78461825  1  0  0.300354  0  2.420607  0  0  0.228972  0  2.931398  0  0  0.217065  0  2.896629  0  0  0.517071  0.239824  0  2.95266  0
Cu  Cu1  1  0.96969103  0.39339285  0.71538413  1  0  0.300391  0  2.420548  0  0  0.228982  0  2.931327  0  0  0.217121  0  2.896578  0  0  0.517044  0.239862  0  2.952469  0
Cu  Cu2  1  0.53030390  0.39339402  0.21538360  1  0  0.300401  0  2.420483  0  0  0.229011  0  2.931259  0  0  0.217131  0  2.896503  0  0  0.517079  0.239875  0  2.952504  0
Cu  Cu3  1  0.03030937  0.60660687  0.28461748  1  0  0.300418  0  2.420489  0  0  0.229013  0  2.931277  0  0  0.217149  0  2.896527  0  0  0.517065  0.239882  0  2.952513  0
P  P4  1  0.56181140  0.74918492  0.71719634  1  0  0.382219  0  3.632703  0  0  0.329533  0  4.14386  0  0  0.347197  0  4.12928  0  0  -0.048253  0.31723  0  4.153031  0
P  P5  1  0.06181200  0.25081473  0.78280179  1  0  0.382158  0  3.632726  0  0  0.329469  0  4.143824  0  0  0.34711  0  4.129272  0  0  -0.048255  0.317176  0  4.152907  0
P  P6  1  0.43819012  0.25081660  0.28280416  1  0  0.382195  0  3.632528  0  0  0.329546  0  4.143684  0  0  0.347199  0  4.129124  0  0  -0.048254  0.317246  0  4.15284  0
P  P7  1  0.93818840  0.74918410  0.21719660  1  0  0.38216  0  3.632629  0  0  0.329459  0  4.143774  0  0  0.347104  0  4.129216  0  0  -0.048275  0.317156  0  4.152925  0
H  H8  1  0.52002555  0.94079273  0.91628323  1  0  0.105207  0  0.945195  0  0  0.120334  0  1.007276  0  0  0.120756  0  1.008208  0  0  0.111803  0.120042  0  1.006692  0
H  H9  1  0.02002861  0.05920513  0.58371664  1  0  0.105216  0  0.945186  0  0  0.120353  0  1.007264  0  0  0.120772  0  1.008198  0  0  0.111804  0.120066  0  1.006683  0
H  H10  1  0.47997258  0.05920519  0.08371798  1  0  0.105214  0  0.945185  0  0  0.120355  0  1.007259  0  0  0.120773  0  1.00819  0  0  0.111799  0.120063  0  1.006675  0
H  H11  1  0.97997179  0.94079461  0.41628045  1  0  0.10524  0  0.945167  0  0  0.120373  0  1.007239  0  0  0.120793  0  1.008172  0  0  0.111801  0.120081  0  1.006654  0
H  H12  1  0.60756396  0.81337897  0.94218704  1  0  0.104968  0  0.95182  0  0  0.116679  0  1.020166  0  0  0.118107  0  1.019296  0  0  0.109064  0.115654  0  1.020884  0
H  H13  1  0.10756543  0.18661798  0.55780836  1  0  0.105018  0  0.951714  0  0  0.116706  0  1.020104  0  0  0.118133  0  1.019234  0  0  0.10905  0.115684  0  1.020821  0
H  H14  1  0.39243530  0.18661896  0.05781191  1  0  0.105047  0  0.951742  0  0  0.116737  0  1.020121  0  0  0.118164  0  1.01925  0  0  0.10908  0.115716  0  1.020843  0
H  H15  1  0.89243496  0.81338177  0.44218797  1  0  0.105085  0  0.951732  0  0  0.116764  0  1.020107  0  0  0.118191  0  1.019238  0  0  0.109081  0.115738  0  1.020825  0
H  H16  1  0.79998289  0.81456633  0.79881860  1  0  0.117028  0  0.944371  0  0  0.131381  0  1.004527  0  0  0.13278  0  1.005748  0  0  0.099974  0.130375  0  1.003735  0
H  H17  1  0.29998533  0.18543682  0.70118102  1  0  0.117076  0  0.944434  0  0  0.131429  0  1.004593  0  0  0.132826  0  1.005815  0  0  0.100006  0.130422  0  1.003801  0
H  H18  1  0.20001638  0.18543610  0.20118285  1  0  0.117024  0  0.944386  0  0  0.131392  0  1.004541  0  0  0.132793  0  1.005762  0  0  0.099974  0.130382  0  1.003749  0
H  H19  1  0.70001619  0.81456383  0.29881626  1  0  0.117041  0  0.94435  0  0  0.131418  0  1.004498  0  0  0.132819  0  1.005715  0  0  0.099982  0.130411  0  1.003705  0
H  H20  1  0.70229886  0.93773352  0.76984039  1  0  0.113433  0  0.94133  0  0  0.130673  0  0.997692  0  0  0.131485  0  0.999641  0  0  0.104193  0.130104  0  0.996376  0
H  H21  1  0.20229952  0.06226876  0.73016100  1  0  0.113413  0  0.941247  0  0  0.130659  0  0.997618  0  0  0.131487  0  0.999544  0  0  0.104185  0.130087  0  0.996303  0
H  H22  1  0.29770040  0.06226889  0.23016256  1  0  0.113449  0  0.941284  0  0  0.13067  0  0.997699  0  0  0.13148  0  0.999651  0  0  0.104196  0.130092  0  0.996379  0
H  H23  1  0.79770200  0.93773099  0.26983533  1  0  0.113446  0  0.94132  0  0  0.130686  0  0.997696  0  0  0.131493  0  0.999649  0  0  0.10422  0.130112  0  0.996378  0
H  H24  1  0.58457201  0.70222612  0.52884801  1  0  0.105538  0  0.97563  0  0  0.120317  0  1.035974  0  0  0.121299  0  1.038298  0  0  0.091772  0.119586  0  1.034412  0
H  H25  1  0.08457943  0.29776902  0.97115069  1  0  0.105577  0  0.975737  0  0  0.120322  0  1.036093  0  0  0.121304  0  1.038416  0  0  0.091773  0.119587  0  1.034537  0
H  H26  1  0.41542613  0.29777541  0.47115249  1  0  0.1055  0  0.975695  0  0  0.120279  0  1.036037  0  0  0.12126  0  1.038361  0  0  0.091753  0.119545  0  1.034479  0
H  H27  1  0.91542322  0.70222259  0.02884912  1  0  0.105561  0  0.975684  0  0  0.120305  0  1.036047  0  0  0.121287  0  1.03837  0  0  0.091752  0.119574  0  1.034486  0
H  H28  1  0.73082366  0.80041567  0.59147991  1  0  0.115011  0  0.958614  0  0  0.129845  0  1.019539  0  0  0.130953  0  1.021033  0  0  0.102683  0.129058  0  1.018545  0
H  H29  1  0.23083314  0.19958393  0.90851645  1  0  0.114992  0  0.9587  0  0  0.12983  0  1.019578  0  0  0.130939  0  1.021075  0  0  0.102675  0.129046  0  1.018585  0
H  H30  1  0.26917560  0.19958316  0.40852074  1  0  0.115  0  0.9586  0  0  0.129843  0  1.019522  0  0  0.130952  0  1.021015  0  0  0.102678  0.129054  0  1.018528  0
H  H31  1  0.76917404  0.80041401  0.09148099  1  0  0.114997  0  0.958603  0  0  0.129825  0  1.019514  0  0  0.130933  0  1.021009  0  0  0.102674  0.129039  0  1.01852  0
H  H32  1  0.32553862  0.75008508  0.53454129  1  0  0.118326  0  0.922404  0  0  0.133814  0  0.977385  0  0  0.134349  0  0.978541  0  0  0.11455  0.133437  0  0.976622  0
H  H33  1  0.82554083  0.24991266  0.96545721  1  0  0.118328  0  0.922377  0  0  0.133812  0  0.977369  0  0  0.134346  0  0.978523  0  0  0.114533  0.133421  0  0.976604  0
H  H34  1  0.67446290  0.24991375  0.46545937  1  0  0.118265  0  0.922442  0  0  0.133766  0  0.977423  0  0  0.134298  0  0.978578  0  0  0.114531  0.133383  0  0.976664  0
H  H35  1  0.17445957  0.75008437  0.03454229  1  0  0.118328  0  0.922393  0  0  0.133825  0  0.977361  0  0  0.134358  0  0.978515  0  0  0.114543  0.133435  0  0.976591  0
H  H36  1  0.28308916  0.67296316  0.63226940  1  0  0.105999  0  0.933823  0  0  0.117449  0  0.999498  0  0  0.119592  0  0.99803  0  0  0.108953  0.115816  0  1.000675  0
H  H37  1  0.78309166  0.32703729  0.86772958  1  0  0.105993  0  0.933838  0  0  0.117441  0  0.999518  0  0  0.119569  0  0.998057  0  0  0.108949  0.115799  0  1.000684  0
H  H38  1  0.71691462  0.32703746  0.36773165  1  0  0.105967  0  0.933818  0  0  0.117413  0  0.999515  0  0  0.119555  0  0.998044  0  0  0.10893  0.115781  0  1.000692  0
H  H39  1  0.21691326  0.67296242  0.13227203  1  0  0.106  0  0.933907  0  0  0.117477  0  0.999548  0  0  0.119604  0  0.998092  0  0  0.108951  0.115834  0  1.000718  0
H  H40  1  0.85232711  0.62083767  0.64492088  1  0  0.110663  0  0.955899  0  0  0.120079  0  1.026123  0  0  0.122121  0  1.025425  0  0  0.104089  0.118473  0  1.0268  0
H  H41  1  0.35232339  0.37916905  0.85507968  1  0  0.11056  0  0.955886  0  0  0.119976  0  1.026175  0  0  0.122025  0  1.025472  0  0  0.104066  0.118374  0  1.026849  0
H  H42  1  0.14766990  0.37916385  0.35508112  1  0  0.110593  0  0.955931  0  0  0.119988  0  1.026194  0  0  0.122039  0  1.025492  0  0  0.104049  0.118381  0  1.026871  0
H  H43  1  0.64767475  0.62083156  0.14492287  1  0  0.110586  0  0.955845  0  0  0.119979  0  1.026137  0  0  0.122024  0  1.025435  0  0  0.10405  0.118377  0  1.026812  0
H  H44  1  0.70664856  0.52791577  0.57854974  1  0  0.112966  0  0.943045  0  0  0.126913  0  1.004398  0  0  0.128053  0  1.004452  0  0  0.110911  0.125974  0  1.004482  0
H  H45  1  0.20664170  0.47208651  0.92145166  1  0  0.112865  0  0.943116  0  0  0.126847  0  1.004468  0  0  0.127988  0  1.004523  0  0  0.110892  0.125906  0  1.004547  0
H  H46  1  0.29335070  0.47208666  0.42145171  1  0  0.112951  0  0.943024  0  0  0.126928  0  1.004346  0  0  0.128068  0  1.004401  0  0  0.110904  0.125984  0  1.004432  0
H  H47  1  0.79335305  0.52791051  0.07854784  1  0  0.112877  0  0.943092  0  0  0.126842  0  1.004424  0  0  0.127983  0  1.004479  0  0  0.110887  0.125903  0  1.004507  0
H  H48  1  0.34837960  0.87958365  0.76746764  1  0  0.121035  0  0.936819  0  0  0.136829  0  0.996229  0  0  0.138366  0  0.996612  0  0  0.105736  0.135675  0  0.996096  0
H  H49  1  0.84838050  0.12041679  0.73252926  1  0  0.121034  0  0.936846  0  0  0.136817  0  0.996258  0  0  0.138357  0  0.996638  0  0  0.105725  0.135663  0  0.996127  0
H  H50  1  0.65162080  0.12041969  0.23253174  1  0  0.121044  0  0.936844  0  0  0.136837  0  0.996256  0  0  0.138376  0  0.996635  0  0  0.105748  0.13568  0  0.996122  0
H  H51  1  0.15161989  0.87958385  0.26746878  1  0  0.121037  0  0.936836  0  0  0.136836  0  0.996243  0  0  0.138374  0  0.996624  0  0  0.105738  0.135681  0  0.996111  0
H  H52  1  0.44354777  0.91761596  0.66121541  1  0  0.122167  0  0.926484  0  0  0.139217  0  0.9808  0  0  0.140507  0  0.982021  0  0  0.105586  0.138319  0  0.979973  0
H  H53  1  0.94354836  0.08238353  0.83878157  1  0  0.122212  0  0.926454  0  0  0.139245  0  0.980789  0  0  0.140535  0  0.98201  0  0  0.105595  0.138343  0  0.979966  0
H  H54  1  0.55645262  0.08238379  0.33878092  1  0  0.12222  0  0.926443  0  0  0.139259  0  0.980774  0  0  0.140549  0  0.981996  0  0  0.10559  0.138358  0  0.979948  0
H  H55  1  0.05645091  0.91761620  0.16121777  1  0  0.1222  0  0.926451  0  0  0.13924  0  0.980789  0  0  0.140528  0  0.982011  0  0  0.10559  0.138334  0  0.979965  0
C  C56  1  0.73026073  0.97211113  0.98689767  1  0  0.320797  0  3.687596  0  0  0.30979  0  3.978215  0  0  0.320081  0  3.994363  0  0  0.184735  0.30278  0  3.967431  0
C  C57  1  0.23026338  0.02788482  0.51310467  1  0  0.32079  0  3.687447  0  0  0.309804  0  3.978052  0  0  0.320094  0  3.994198  0  0  0.184738  0.302798  0  3.967277  0
C  C58  1  0.26973627  0.02788677  0.01310580  1  0  0.320772  0  3.687585  0  0  0.30979  0  3.978185  0  0  0.320076  0  3.994326  0  0  0.184723  0.302778  0  3.967403  0
C  C59  1  0.76973815  0.97211582  0.48689336  1  0  0.320774  0  3.687522  0  0  0.309778  0  3.978115  0  0  0.320068  0  3.99426  0  0  0.184729  0.302765  0  3.967336  0
C  C60  1  0.62893567  0.89394469  0.91363603  1  0  -0.143703  0  3.781859  0  0  -0.17931  0  4.018581  0  0  -0.179233  0  4.028246  0  0  -0.133917  -0.179385  0  4.012197  0
C  C61  1  0.12893751  0.10605314  0.58636265  1  0  -0.143731  0  3.781721  0  0  -0.179318  0  4.018396  0  0  -0.179243  0  4.028063  0  0  -0.133893  -0.179416  0  4.012031  0
C  C62  1  0.37106359  0.10605413  0.08636537  1  0  -0.143836  0  3.781869  0  0  -0.179429  0  4.018585  0  0  -0.179336  0  4.028229  0  0  -0.133951  -0.179509  0  4.0122  0
C  C63  1  0.87106288  0.89394661  0.41363369  1  0  -0.143877  0  3.781881  0  0  -0.179439  0  4.018556  0  0  -0.179362  0  4.028219  0  0  -0.133943  -0.179509  0  4.012165  0
C  C64  1  0.68911486  0.85873767  0.80171052  1  0  -0.271147  0  3.618543  0  0  -0.291776  0  3.867023  0  0  -0.298323  0  3.879895  0  0  -0.161661  -0.287177  0  3.858233  0
C  C65  1  0.18911965  0.14126553  0.69828802  1  0  -0.271199  0  3.618669  0  0  -0.291801  0  3.867068  0  0  -0.298348  0  3.879915  0  0  -0.161666  -0.287197  0  3.85827  0
C  C66  1  0.31088327  0.14126295  0.19829053  1  0  -0.271108  0  3.618493  0  0  -0.29176  0  3.867016  0  0  -0.298312  0  3.879888  0  0  -0.161628  -0.287145  0  3.858205  0
C  C67  1  0.81088301  0.85873692  0.30170815  1  0  -0.271157  0  3.618681  0  0  -0.291801  0  3.867102  0  0  -0.298339  0  3.879964  0  0  -0.161656  -0.287202  0  3.858301  0
C  C68  1  0.66619033  0.71931430  0.59331328  1  0  -0.272542  0  3.611184  0  0  -0.290367  0  3.852872  0  0  -0.297224  0  3.86606  0  0  -0.165336  -0.285605  0  3.84389  0
C  C69  1  0.16619397  0.28068710  0.90668630  1  0  -0.272589  0  3.611382  0  0  -0.29034  0  3.853021  0  0  -0.297197  0  3.866215  0  0  -0.165322  -0.285577  0  3.844041  0
C  C70  1  0.33381006  0.28068722  0.40668797  1  0  -0.272491  0  3.611107  0  0  -0.29035  0  3.852842  0  0  -0.297207  0  3.866034  0  0  -0.165321  -0.285581  0  3.843863  0
C  C71  1  0.83380643  0.71930902  0.09331300  1  0  -0.27255  0  3.611243  0  0  -0.290281  0  3.85274  0  0  -0.297137  0  3.86593  0  0  -0.165283  -0.285525  0  3.843772  0
C  C72  1  0.29006602  0.76266215  0.61608044  1  0  -0.140621  0  3.751933  0  0  -0.171189  0  3.985795  0  0  -0.172601  0  3.996725  0  0  -0.127203  -0.170141  0  3.978398  0
C  C73  1  0.79006543  0.23733830  0.88391855  1  0  -0.140632  0  3.751798  0  0  -0.171179  0  3.985605  0  0  -0.172574  0  3.996541  0  0  -0.127156  -0.170077  0  3.978148  0
C  C74  1  0.70993551  0.23733757  0.38392041  1  0  -0.140483  0  3.751836  0  0  -0.171061  0  3.98568  0  0  -0.172459  0  3.996592  0  0  -0.127162  -0.17  0  3.978278  0
C  C75  1  0.20993383  0.76266142  0.11608230  1  0  -0.140709  0  3.75194  0  0  -0.171279  0  3.985742  0  0  -0.172676  0  3.99668  0  0  -0.12717  -0.170173  0  3.978274  0
C  C76  1  0.85715918  0.59131028  0.48420124  1  0  0.370163  0  3.624615  0  0  0.357287  0  3.897174  0  0  0.369683  0  3.911459  0  0  0.210996  0.348642  0  3.888046  0
C  C77  1  0.35715874  0.40869676  0.01580068  1  0  0.370066  0  3.624623  0  0  0.35721  0  3.897204  0  0  0.369603  0  3.911494  0  0  0.210979  0.34857  0  3.888076  0
C  C78  1  0.14284122  0.40869123  0.51580076  1  0  0.370156  0  3.624485  0  0  0.357289  0  3.897032  0  0  0.369686  0  3.91132  0  0  0.211003  0.348639  0  3.887879  0
C  C79  1  0.64284053  0.59130567  0.98420002  1  0  0.370199  0  3.624598  0  0  0.357306  0  3.897161  0  0  0.3697  0  3.911447  0  0  0.21105  0.348665  0  3.888042  0
C  C80  1  0.13803343  0.81180239  0.62570856  1  0  0.344779  0  3.653493  0  0  0.334324  0  3.93018  0  0  0.345251  0  3.947979  0  0  0.200601  0.326888  0  3.918168  0
C  C81  1  0.63802610  0.18819904  0.87428943  1  0  0.344757  0  3.653755  0  0  0.33429  0  3.930451  0  0  0.345215  0  3.948242  0  0  0.200545  0.326845  0  3.918417  0
C  C82  1  0.86196923  0.18819374  0.37428999  1  0  0.344804  0  3.653484  0  0  0.334354  0  3.930179  0  0  0.345275  0  3.947974  0  0  0.20063  0.326917  0  3.918158  0
C  C83  1  0.36197203  0.81180069  0.12570991  1  0  0.344778  0  3.653721  0  0  0.334313  0  3.930418  0  0  0.345239  0  3.948211  0  0  0.20057  0.326865  0  3.918379  0
C  C84  1  0.77158825  0.60998206  0.57975855  1  0  -0.156094  0  3.781178  0  0  -0.186675  0  4.013634  0  0  -0.187841  0  4.021925  0  0  -0.134845  -0.185706  0  4.008236  0
C  C85  1  0.27158608  0.39002199  0.92024193  1  0  -0.155768  0  3.781057  0  0  -0.186429  0  4.013531  0  0  -0.187601  0  4.021821  0  0  -0.134804  -0.185463  0  4.008129  0
C  C86  1  0.22841102  0.39001946  0.42024269  1  0  -0.156011  0  3.78112  0  0  -0.186589  0  4.013546  0  0  -0.187765  0  4.021835  0  0  -0.134802  -0.18561  0  4.008132  0
C  C87  1  0.72841093  0.60997682  0.07975947  1  0  -0.155912  0  3.781219  0  0  -0.186469  0  4.013515  0  0  -0.187634  0  4.021807  0  0  -0.134815  -0.185504  0  4.008128  0
C  C88  1  0.40313624  0.84255533  0.69176318  1  0  -0.274969  0  3.588667  0  0  -0.298346  0  3.840518  0  0  -0.304333  0  3.852255  0  0  -0.15949  -0.294086  0  3.832346  0
C  C89  1  0.90313645  0.15744418  0.80823444  1  0  -0.274976  0  3.588657  0  0  -0.298336  0  3.840499  0  0  -0.304321  0  3.852231  0  0  -0.159477  -0.294092  0  3.832314  0
C  C90  1  0.59686528  0.15744530  0.30823637  1  0  -0.275044  0  3.588626  0  0  -0.298428  0  3.840516  0  0  -0.304418  0  3.852248  0  0  -0.159508  -0.29417  0  3.832341  0
C  C91  1  0.09686281  0.84255466  0.19176471  1  0  -0.274922  0  3.588637  0  0  -0.298332  0  3.840552  0  0  -0.304316  0  3.852283  0  0  -0.159495  -0.29409  0  3.832363  0
C  C92  1  0.62603249  0.37728105  0.67557174  1  0  0.262419  0  4.002524  0  0  0.252562  0  4.300935  0  0  0.269915  0  4.313816  0  0  0.137442  0.24086  0  4.292083  0
C  C93  1  0.12603594  0.62272217  0.82442888  1  0  0.262478  0  4.002583  0  0  0.252623  0  4.300976  0  0  0.269975  0  4.313857  0  0  0.13747  0.24093  0  4.292121  0
C  C94  1  0.37396677  0.62272137  0.32443122  1  0  0.262397  0  4.002552  0  0  0.252542  0  4.300956  0  0  0.269896  0  4.313836  0  0  0.137454  0.240846  0  4.292105  0
C  C95  1  0.87396220  0.37727935  0.17557237  1  0  0.26251  0  4.002537  0  0  0.252653  0  4.300947  0  0  0.270006  0  4.313826  0  0  0.137459  0.240957  0  4.292096  0
S  S96  1  0.44592228  0.40848164  0.67271350  1  0  -0.321894  0  2.362736  0  0  -0.293129  0  2.721901  0  0  -0.304018  0  2.710584  0  0  -0.153927  -0.285779  0  2.729175  0
S  S97  1  0.94592617  0.59152144  0.82728503  1  0  -0.321967  0  2.362791  0  0  -0.293199  0  2.721947  0  0  -0.304097  0  2.710639  0  0  -0.153975  -0.285866  0  2.729207  0
S  S98  1  0.55407472  0.59152259  0.32728683  1  0  -0.321898  0  2.36278  0  0  -0.293138  0  2.721958  0  0  -0.304033  0  2.710645  0  0  -0.153945  -0.285795  0  2.729234  0
S  S99  1  0.05407422  0.40847828  0.17271506  1  0  -0.322005  0  2.362776  0  0  -0.293232  0  2.72193  0  0  -0.30413  0  2.710622  0  0  -0.153978  -0.28589  0  2.729208  0
N  N100  1  0.80995723  0.03450781  0.04718113  1  0  -0.424968  0  2.544232  0  0  -0.406382  0  2.756237  0  0  -0.416567  0  2.768695  0  0  -0.320617  -0.399574  0  2.747952  0
N  N101  1  0.30995966  0.96548663  0.45282163  1  0  -0.424979  0  2.544094  0  0  -0.40642  0  2.756124  0  0  -0.416606  0  2.768583  0  0  -0.320653  -0.39961  0  2.747834  0
N  N102  1  0.19004090  0.96549009  0.95282233  1  0  -0.424946  0  2.544208  0  0  -0.406386  0  2.756231  0  0  -0.416569  0  2.768689  0  0  -0.320627  -0.399578  0  2.747946  0
N  N103  1  0.69004186  0.03451220  0.54717752  1  0  -0.424958  0  2.544138  0  0  -0.40639  0  2.756162  0  0  -0.416575  0  2.76862  0  0  -0.320647  -0.399581  0  2.747875  0
N  N104  1  0.92465347  0.58239426  0.40716186  1  0  -0.409079  0  3.058639  0  0  -0.372878  0  3.37493  0  0  -0.378687  0  3.375042  0  0  -0.373915  -0.370128  0  3.375239  0
N  N105  1  0.42464675  0.41760825  0.09284077  1  0  -0.409047  0  3.058771  0  0  -0.372858  0  3.375065  0  0  -0.378663  0  3.375173  0  0  -0.373921  -0.370108  0  3.375376  0
N  N106  1  0.07534806  0.41760546  0.59283974  1  0  -0.409064  0  3.058566  0  0  -0.372874  0  3.374867  0  0  -0.378685  0  3.374981  0  0  -0.373903  -0.370117  0  3.375113  0
N  N107  1  0.57535252  0.58239508  0.90716013  1  0  -0.409114  0  3.058748  0  0  -0.372932  0  3.375067  0  0  -0.37873  0  3.375163  0  0  -0.373962  -0.370179  0  3.375384  0
N  N108  1  0.01568253  0.85094663  0.63458998  1  0  -0.437364  0  2.595983  0  0  -0.409959  0  2.819279  0  0  -0.422379  0  2.833569  0  0  -0.313141  -0.401644  0  2.809709  0
N  N109  1  0.51568654  0.14905394  0.86541047  1  0  -0.437336  0  2.596331  0  0  -0.409916  0  2.819603  0  0  -0.422334  0  2.833892  0  0  -0.313103  -0.401599  0  2.81004  0
N  N110  1  0.98431673  0.14905311  0.36540711  1  0  -0.437412  0  2.596039  0  0  -0.410002  0  2.81932  0  0  -0.422419  0  2.833606  0  0  -0.313166  -0.401686  0  2.809751  0
N  N111  1  0.48431499  0.85094580  0.13458812  1  0  -0.437326  0  2.59628  0  0  -0.40992  0  2.81958  0  0  -0.422337  0  2.833867  0  0  -0.313132  -0.401604  0  2.810015  0
N  N112  1  0.75760771  0.35918883  0.67709495  1  0  -0.480689  0  3.091282  0  0  -0.435986  0  3.403278  0  0  -0.446375  0  3.403938  0  0  -0.427835  -0.429526  0  3.402542  0
N  N113  1  0.25760997  0.64081252  0.82290640  1  0  -0.480699  0  3.091339  0  0  -0.436004  0  3.403344  0  0  -0.446384  0  3.403987  0  0  -0.427819  -0.429544  0  3.402645  0
N  N114  1  0.24239269  0.64081448  0.32290970  1  0  -0.480698  0  3.091217  0  0  -0.435997  0  3.403213  0  0  -0.446387  0  3.403871  0  0  -0.427849  -0.429535  0  3.402507  0
N  N115  1  0.74238816  0.35918900  0.17709410  1  0  -0.480716  0  3.091302  0  0  -0.43602  0  3.403315  0  0  -0.446407  0  3.403967  0  0  -0.427797  -0.429562  0  3.402611  0
