# generated using pymatgen
data_H12RhC20N(O2F)2
_symmetry_space_group_name_H-M   'P 1'
_cell_length_a   9.79675707
_cell_length_b   10.87649589
_cell_length_c   11.27929693
_cell_angle_alpha   66.36874656
_cell_angle_beta   66.73040951
_cell_angle_gamma   65.46941955
_symmetry_Int_Tables_number   1
_chemical_formula_structural   H12RhC20N(O2F)2
_chemical_formula_sum   'H24 Rh2 C40 N2 O8 F4'
_cell_volume   963.26558595
_cell_formula_units_Z   2
loop_
 _symmetry_equiv_pos_site_id
 _symmetry_equiv_pos_as_xyz
  1  'x, y, z'
loop_
 _atom_site_type_symbol
 _atom_site_label
 _atom_site_symmetry_multiplicity
 _atom_site_fract_x
 _atom_site_fract_y
 _atom_site_fract_z
 _atom_site_occupancy
 _atom_site_pbe_bader_charge
 _atom_site_pbe_bader_spin_density
 _atom_site_pbe_cm5_charge
 _atom_site_pbe_ddec_charge
 _atom_site_pbe_ddec_spin_density
 _atom_site_pbe_ddec_sum_bond_order
 _atom_site_pbe_magmom
H  H0  1  0.01908058  0.84941882  0.12967271  1  0.107553  0  0.109118  0.116352  0  1.000041  0
H  H1  1  0.98090903  0.15056772  0.87035557  1  0.107495  0  0.10915  0.116325  0  1.00001  0
H  H2  1  0.86244576  0.07781974  0.19254169  1  0.076069  0  0.110857  0.134484  0  0.997093  0
H  H3  1  0.13754870  0.92217521  0.80746834  1  0.076109  0  0.110853  0.134489  0  0.99715  0
H  H4  1  0.28544744  0.14043455  0.15254708  1  0.114777  0  0.114249  0.145342  0  0.991559  0
H  H5  1  0.71455332  0.85956773  0.84744105  1  0.114772  0  0.114224  0.145304  0  0.991588  0
H  H6  1  0.44147388  0.91535454  0.08696593  1  0.088792  0  0.108416  0.111663  0  1.014637  0
H  H7  1  0.55852155  0.08463408  0.91304001  1  0.08878  0  0.108439  0.111698  0  1.01465  0
H  H8  1  0.69008471  0.25924479  0.39070277  1  0.136411  0  0.108  0.115312  0  1.010574  0
H  H9  1  0.30987670  0.74073539  0.60929169  1  0.136233  0  0.108107  0.115393  0  1.010405  0
H  H10  1  0.67371164  0.10159382  0.62852156  1  0.09843  0  0.106802  0.129729  0  1.011768  0
H  H11  1  0.32625119  0.89838215  0.37147404  1  0.098032  0  0.106707  0.129437  0  1.011634  0
H  H12  1  0.23584360  0.07547918  0.65529767  1  0.086058  0  0.106601  0.123656  0  1.027271  0
H  H13  1  0.76409377  0.92454635  0.34470080  1  0.08596  0  0.106528  0.123632  0  1.027386  0
H  H14  1  0.25426297  0.22894352  0.41779964  1  0.106371  0  0.111099  0.115976  0  0.989426  0
H  H15  1  0.74567825  0.77108729  0.58220607  1  0.106513  0  0.111125  0.116069  0  0.989253  0
H  H16  1  0.14272494  0.48919438  0.24082403  1  0.128807  0  0.10355  0.118193  0  1.067147  0
H  H17  1  0.85732563  0.51082581  0.75917793  1  0.129121  0  0.103516  0.118328  0  1.066937  0
H  H18  1  0.90557331  0.55439551  0.42177711  1  0.052454  0  0.097702  0.095165  0  1.007459  0
H  H19  1  0.09447251  0.44560573  0.57823299  1  0.052686  0  0.097567  0.095058  0  1.007508  0
H  H20  1  0.64203305  0.61833958  0.39301890  1  0.079685  0  0.093595  0.090668  0  1.040372  0
H  H21  1  0.35802587  0.38164584  0.60699192  1  0.079499  0  0.093639  0.090655  0  1.040162  0
H  H22  1  0.61756316  0.61127934  0.18648625  1  0.113544  0  0.10534  0.122614  0  1.05287  0
H  H23  1  0.38247701  0.38871873  0.81351908  1  0.112965  0  0.10536  0.122627  0  1.052941  0
Rh  Rh24  1  0.38085918  0.48383029  0.00665662  1  1.014007  0  0.644031  0.561272  0  3.666534  0
Rh  Rh25  1  0.61915911  0.51617305  0.99334008  1  1.014988  0  0.643898  0.561256  0  3.666176  0
C  C26  1  0.33323766  0.73513914  0.06849461  1  1.48112  0  0.214137  0.534871  0  4.131343  0
C  C27  1  0.66677722  0.26485789  0.93150751  1  1.491747  0  0.214003  0.534689  0  4.131837  0
C  C28  1  0.23958485  0.86844074  0.10606087  1  -0.011698  0  -0.024486  -0.057902  0  3.999117  0
C  C29  1  0.76041732  0.13155103  0.89394416  1  -0.022938  0  -0.024458  -0.057839  0  3.998887  0
C  C30  1  0.07621140  0.91298576  0.13580811  1  -0.014616  0  -0.077867  -0.062348  0  3.970532  0
C  C31  1  0.92378554  0.08700181  0.86420480  1  -0.014712  0  -0.078036  -0.062391  0  3.97058  0
C  C32  1  0.98893641  0.03735244  0.17235958  1  0.028913  0  -0.102379  -0.219218  0  4.010989  0
C  C33  1  0.01106215  0.96264670  0.82764117  1  0.028735  0  -0.102314  -0.21913  0  4.011146  0
C  C34  1  0.06724266  0.11372082  0.18061552  1  0.392438  0  0.103608  0.30345  0  4.05648  0
C  C35  1  0.93275706  0.88628777  0.81936608  1  0.392322  0  0.103656  0.303282  0  4.056624  0
C  C36  1  0.22905644  0.07500366  0.14833941  1  -0.024878  0  -0.099302  -0.220457  0  3.997528  0
C  C37  1  0.77094246  0.92500072  0.85164235  1  -0.024203  0  -0.099284  -0.220354  0  3.997549  0
C  C38  1  0.31472185  0.95075263  0.11120462  1  0.016322  0  -0.078933  -0.065238  0  3.974945  0
C  C39  1  0.68527261  0.04924546  0.88879620  1  0.016519  0  -0.078867  -0.065221  0  3.97487  0
C  C40  1  0.48282998  0.34337919  0.24989026  1  1.504284  0  0.214498  0.533846  0  4.136056  0
C  C41  1  0.51716221  0.65661889  0.75010426  1  1.504584  0  0.214686  0.534029  0  4.13592  0
C  C42  1  0.47311516  0.25300499  0.39048631  1  0.044136  0  -0.024172  -0.061184  0  4.008966  0
C  C43  1  0.52684593  0.74699944  0.60950680  1  0.045223  0  -0.024202  -0.061073  0  4.008646  0
C  C44  1  0.59171876  0.21781163  0.44920913  1  -0.05611  0  -0.076946  -0.065087  0  3.960562  0
C  C45  1  0.40824749  0.78216751  0.55078937  1  -0.056854  0  -0.077025  -0.065167  0  3.960293  0
C  C46  1  0.58339465  0.13078492  0.58051686  1  0.064706  0  -0.098171  -0.210545  0  3.995142  0
C  C47  1  0.41656717  0.86919737  0.41947752  1  0.06465  0  -0.098118  -0.210121  0  3.995028  0
C  C48  1  0.45459759  0.08153093  0.65113848  1  0.331584  0  0.105499  0.300262  0  4.056129  0
C  C49  1  0.54535289  0.91846191  0.34885396  1  0.33233  0  0.105541  0.300211  0  4.056553  0
C  C50  1  0.33473537  0.11560706  0.59620254  1  -0.017803  0  -0.097696  -0.212455  0  4.019128  0
C  C51  1  0.66520654  0.88440476  0.40379082  1  -0.017633  0  -0.097793  -0.212662  0  4.019442  0
C  C52  1  0.34514801  0.20134385  0.46469199  1  -0.036625  0  -0.075058  -0.060486  0  3.975178  0
C  C53  1  0.65479742  0.79867745  0.53530265  1  -0.037306  0  -0.074989  -0.060603  0  3.975057  0
C  C54  1  0.01838016  0.51036636  0.10937265  1  0.501921  0  0.116046  0.167523  0  3.968933  0
C  C55  1  0.98166274  0.48963698  0.89063854  1  0.502356  0  0.116158  0.16761  0  3.968748  0
C  C56  1  0.02795862  0.51636680  0.22950485  1  -0.022869  0  -0.094987  -0.159447  0  3.972323  0
C  C57  1  0.97209034  0.48364811  0.77049264  1  -0.022454  0  -0.095055  -0.159671  0  3.97216  0
C  C58  1  0.89567189  0.55210174  0.32973052  1  -0.079738  0  -0.09508  -0.078846  0  4.032826  0
C  C59  1  0.10437814  0.44791001  0.67026960  1  -0.080201  0  -0.094892  -0.078684  0  4.032311  0
C  C60  1  0.74622933  0.58751805  0.31395775  1  -0.050547  0  -0.09261  -0.068044  0  4.021884  0
C  C61  1  0.25382215  0.41248635  0.68605625  1  -0.050713  0  -0.092697  -0.068091  0  4.02146  0
C  C62  1  0.73169781  0.58321346  0.19959997  1  -0.031401  0  -0.094014  -0.153789  0  3.94908  0
C  C63  1  0.26834662  0.41679200  0.80041164  1  -0.032366  0  -0.094057  -0.1539  0  3.949372  0
C  C64  1  0.86576440  0.54081719  0.09574680  1  0.49673  0  0.114204  0.163661  0  3.971294  0
C  C65  1  0.13426480  0.45919038  0.90425953  1  0.497584  0  0.114083  0.163739  0  3.971195  0
N  N66  1  0.15089976  0.47229422  0.01234360  1  -1.148152  0  -0.301051  -0.247287  0  3.41481  0
N  N67  1  0.84913973  0.52770596  0.98766646  1  -1.148152  0  -0.301235  -0.247485  0  3.41484  0
O  O68  1  0.25932487  0.66695878  0.05992996  1  -1.068229  0  -0.292176  -0.438053  0  2.473165  0
O  O69  1  0.74069222  0.33304139  0.94006307  1  -1.06754  0  -0.29211  -0.437957  0  2.473346  0
O  O70  1  0.48156906  0.69748064  0.04792616  1  -1.067199  0  -0.294112  -0.443743  0  2.47012  0
O  O71  1  0.51844919  0.30251639  0.95208187  1  -1.067655  0  -0.294011  -0.443661  0  2.470315  0
O  O72  1  0.37479418  0.36394880  0.20062524  1  -1.079547  0  -0.295894  -0.445175  0  2.487331  0
O  O73  1  0.62521704  0.63603870  0.79935525  1  -1.079785  0  -0.295973  -0.445365  0  2.487189  0
O  O74  1  0.59754253  0.39388782  0.18825545  1  -1.077364  0  -0.291106  -0.436118  0  2.47695  0
O  O75  1  0.40244540  0.60611661  0.81175227  1  -1.077561  0  -0.29117  -0.436161  0  2.477141  0
F  F76  1  0.98052606  0.23128438  0.22329635  1  -0.639875  0  -0.08966  -0.137732  0  1.375576  0
F  F77  1  0.01947030  0.76872737  0.77667544  1  -0.639954  0  -0.089736  -0.137727  0  1.37566  0
F  F78  1  0.44439122  0.99645265  0.78003977  1  -0.638874  0  -0.091471  -0.140764  0  1.348982  0
F  F79  1  0.55555872  0.00353175  0.21994995  1  -0.638764  0  -0.091403  -0.140686  0  1.349345  0
