# generated using pymatgen
data_ZnH12C24I2(NO)6
_symmetry_space_group_name_H-M   'P 1'
_cell_length_a   9.74155926
_cell_length_b   12.59036766
_cell_length_c   12.72328173
_cell_angle_alpha   101.64311725
_cell_angle_beta   94.37949423
_cell_angle_gamma   107.21549311
_symmetry_Int_Tables_number   1
_chemical_formula_structural   ZnH12C24I2(NO)6
_chemical_formula_sum   'Zn2 H24 C48 I4 N12 O12'
_cell_volume   1444.39432275
_cell_formula_units_Z   2
loop_
 _symmetry_equiv_pos_site_id
 _symmetry_equiv_pos_as_xyz
  1  'x, y, z'
loop_
 _atom_site_type_symbol
 _atom_site_label
 _atom_site_symmetry_multiplicity
 _atom_site_fract_x
 _atom_site_fract_y
 _atom_site_fract_z
 _atom_site_occupancy
 _atom_site_hle17_bader_spin_density
 _atom_site_hle17_ddec_charge
 _atom_site_hle17_ddec_spin_density
 _atom_site_hle17_ddec_sum_bond_order
 _atom_site_hle17_magmom
 _atom_site_hse06_10hf_bader_spin_density
 _atom_site_hse06_10hf_ddec_charge
 _atom_site_hse06_10hf_ddec_spin_density
 _atom_site_hse06_10hf_ddec_sum_bond_order
 _atom_site_hse06_10hf_magmom
 _atom_site_hse06_bader_spin_density
 _atom_site_hse06_ddec_charge
 _atom_site_hse06_ddec_spin_density
 _atom_site_hse06_ddec_sum_bond_order
 _atom_site_hse06_magmom
 _atom_site_pbe_bader_spin_density
 _atom_site_pbe_cm5_charge
 _atom_site_pbe_ddec_charge
 _atom_site_pbe_ddec_spin_density
 _atom_site_pbe_ddec_sum_bond_order
 _atom_site_pbe_magmom
Zn  Zn0  1  0.91007713  0.66598952  0.05175128  1  0  0.658073  0  2.237319  0  0  0.506866  0  2.683902  0  0  0.545878  0  2.647335  0  0  0.453981  0.48049  0  2.708267  0
Zn  Zn1  1  0.08992266  0.33401074  0.94825200  1  0  0.658123  0  2.237284  0  0  0.506938  0  2.68386  0  0  0.54596  0  2.647288  0  0  0.454006  0.480562  0  2.708221  0
H  H2  1  0.03708481  0.86515608  0.25149961  1  0  0.116606  0  0.943092  0  0  0.119929  0  1.012837  0  0  0.124753  0  1.009109  0  0  0.114195  0.116442  0  1.015662  0
H  H3  1  0.96292293  0.13485360  0.74850292  1  0  0.116593  0  0.943281  0  0  0.119922  0  1.013015  0  0  0.124745  0  1.009288  0  0  0.114176  0.116436  0  1.015834  0
H  H4  1  0.65316607  0.74975469  0.03163192  1  0  0.118909  0  0.960403  0  0  0.118412  0  1.036003  0  0  0.123289  0  1.031927  0  0  0.112311  0.114895  0  1.039023  0
H  H5  1  0.34684908  0.25024815  0.96836327  1  0  0.118937  0  0.960349  0  0  0.118449  0  1.035946  0  0  0.123329  0  1.031866  0  0  0.112307  0.114931  0  1.038975  0
H  H6  1  0.59905809  0.31954916  0.76394668  1  0  0.108955  0  0.962115  0  0  0.109774  0  1.036254  0  0  0.11442  0  1.032604  0  0  0.099789  0.106384  0  1.039089  0
H  H7  1  0.40094719  0.68045194  0.23605706  1  0  0.108958  0  0.962139  0  0  0.109728  0  1.036319  0  0  0.114373  0  1.032671  0  0  0.099786  0.106341  0  1.039157  0
H  H8  1  0.20258874  0.16437499  0.55827090  1  0  0.105732  0  0.94083  0  0  0.109116  0  1.009666  0  0  0.113276  0  1.007307  0  0  0.111048  0.106104  0  1.011585  0
H  H9  1  0.79741485  0.83563215  0.44173009  1  0  0.105718  0  0.940803  0  0  0.109124  0  1.009623  0  0  0.113285  0  1.007263  0  0  0.111045  0.106107  0  1.011546  0
H  H10  1  0.05374868  0.58904253  0.23239481  1  0  0.118343  0  0.967982  0  0  0.116319  0  1.047435  0  0  0.121478  0  1.04292  0  0  0.10867  0.112568  0  1.050837  0
H  H11  1  0.94624494  0.41095776  0.76760738  1  0  0.118342  0  0.968026  0  0  0.116304  0  1.047483  0  0  0.121467  0  1.042965  0  0  0.108659  0.112555  0  1.050876  0
H  H12  1  0.63885092  0.47787040  0.05186045  1  0  0.108414  0  0.951746  0  0  0.111924  0  1.022298  0  0  0.115989  0  1.019043  0  0  0.110149  0.108947  0  1.024836  0
H  H13  1  0.36113776  0.52212052  0.94813481  1  0  0.108483  0  0.951776  0  0  0.111985  0  1.022329  0  0  0.116048  0  1.019075  0  0  0.110174  0.109007  0  1.024867  0
H  H14  1  0.83034155  0.08070678  0.52965106  1  0  0.145775  0  0.934827  0  0  0.152454  0  1.000665  0  0  0.15662  0  0.997951  0  0  0.114041  0.149462  0  1.002716  0
H  H15  1  0.16966027  0.91929609  0.47034659  1  0  0.145801  0  0.934781  0  0  0.152473  0  1.000625  0  0  0.156638  0  0.997913  0  0  0.114051  0.149482  0  1.002673  0
H  H16  1  0.84260382  0.41979151  0.50262498  1  0  0.149537  0  0.918814  0  0  0.160029  0  0.975189  0  0  0.164221  0  0.972527  0  0  0.119277  0.157005  0  0.97724  0
H  H17  1  0.15739495  0.58021134  0.49737643  1  0  0.149518  0  0.918848  0  0  0.160046  0  0.975179  0  0  0.16424  0  0.972514  0  0  0.119262  0.157022  0  0.977231  0
H  H18  1  0.04508294  0.22655466  0.28159548  1  0  0.145933  0  0.921717  0  0  0.154784  0  0.982424  0  0  0.158889  0  0.979775  0  0  0.114082  0.151797  0  0.984469  0
H  H19  1  0.95491650  0.77344993  0.71840319  1  0  0.146006  0  0.921764  0  0  0.154844  0  0.982465  0  0  0.158947  0  0.979823  0  0  0.114117  0.151832  0  0.984543  0
H  H20  1  0.41034690  0.92795043  0.28797214  1  0  0.134407  0  0.950609  0  0  0.141647  0  1.01666  0  0  0.144745  0  1.01523  0  0  0.106852  0.139401  0  1.017857  0
H  H21  1  0.58966318  0.07204977  0.71203324  1  0  0.134404  0  0.950657  0  0  0.141638  0  1.016721  0  0  0.144737  0  1.015291  0  0  0.106815  0.139389  0  1.017918  0
H  H22  1  0.39496260  0.26853916  0.29204566  1  0  0.143393  0  0.926038  0  0  0.153815  0  0.983665  0  0  0.157718  0  0.981277  0  0  0.112331  0.150992  0  0.985521  0
H  H23  1  0.60504190  0.73145771  0.70795087  1  0  0.143388  0  0.925973  0  0  0.153808  0  0.98362  0  0  0.157711  0  0.98123  0  0  0.1123  0.150983  0  0.98548  0
H  H24  1  0.62239085  0.11211968  0.06186680  1  0  0.14475  0  0.943633  0  0  0.150966  0  1.0117  0  0  0.155363  0  1.0082  0  0  0.105702  0.147758  0  1.014409  0
H  H25  1  0.37760224  0.88786694  0.93812778  1  0  0.144788  0  0.943683  0  0  0.150975  0  1.011774  0  0  0.155367  0  1.00828  0  0  0.105727  0.147766  0  1.014479  0
C  C26  1  0.89035616  0.96815162  0.27653999  1  0  0.428153  0  3.809713  0  0  0.404806  0  4.084872  0  0  0.422138  0  4.093064  0  0  0.228603  0.392847  0  4.079416  0
C  C27  1  0.10964672  0.03185123  0.72346086  1  0  0.428195  0  3.81004  0  0  0.40488  0  4.08514  0  0  0.422207  0  4.093347  0  0  0.22861  0.392896  0  4.079709  0
C  C28  1  0.93394676  0.87631779  0.22596534  1  0  -0.058001  0  3.639469  0  0  -0.103666  0  3.90104  0  0  -0.105042  0  3.915636  0  0  0.026311  -0.103011  0  3.891612  0
C  C29  1  0.06605820  0.12368761  0.77403693  1  0  -0.058132  0  3.639768  0  0  -0.103816  0  3.901303  0  0  -0.105185  0  3.915908  0  0  0.026317  -0.103149  0  3.891868  0
C  C30  1  0.72099131  0.81212489  0.10280175  1  0  -0.037295  0  3.627944  0  0  -0.083012  0  3.891514  0  0  -0.082885  0  3.90345  0  0  0.0353  -0.083344  0  3.883931  0
C  C31  1  0.27901356  0.18787540  0.89719473  1  0  -0.037422  0  3.628143  0  0  -0.083163  0  3.891712  0  0  -0.083036  0  3.903654  0  0  0.03524  -0.0835  0  3.88414  0
C  C32  1  0.68295574  0.90565589  0.15695035  1  0  0.442423  0  3.805272  0  0  0.415865  0  4.080298  0  0  0.434601  0  4.086214  0  0  0.23351  0.402807  0  4.076447  0
C  C33  1  0.31704576  0.09434350  0.84305362  1  0  0.442375  0  3.80521  0  0  0.415799  0  4.080237  0  0  0.434538  0  4.086151  0  0  0.233498  0.402746  0  4.076378  0
C  C34  1  0.53869344  0.27126720  0.68433467  1  0  -0.066967  0  3.70268  0  0  -0.102317  0  3.977019  0  0  -0.104615  0  3.990067  0  0  0.018929  -0.101082  0  3.968603  0
C  C35  1  0.46130806  0.72873479  0.31566671  1  0  -0.066896  0  3.702666  0  0  -0.102156  0  3.976959  0  0  -0.104454  0  3.990014  0  0  0.01892  -0.100941  0  3.968559  0
C  C36  1  0.61008697  0.23865268  0.59741448  1  0  0.416093  0  3.806891  0  0  0.392793  0  4.079781  0  0  0.410486  0  4.087528  0  0  0.220216  0.380506  0  4.07468  0
C  C37  1  0.38991453  0.76134931  0.40258612  1  0  0.416061  0  3.806816  0  0  0.392763  0  4.079696  0  0  0.410442  0  4.087449  0  0  0.220215  0.380481  0  4.074592  0
C  C38  1  0.39567412  0.15547849  0.48635616  1  0  0.413568  0  3.819504  0  0  0.389934  0  4.094019  0  0  0.40722  0  4.102626  0  0  0.216303  0.377934  0  4.088304  0
C  C39  1  0.60432632  0.84452352  0.51364203  1  0  0.41356  0  3.819462  0  0  0.389951  0  4.093952  0  0  0.407236  0  4.102558  0  0  0.216328  0.377937  0  4.088246  0
C  C40  1  0.32053728  0.18589084  0.57098849  1  0  -0.075323  0  3.723169  0  0  -0.11243  0  4.000688  0  0  -0.115168  0  4.015217  0  0  0.016664  -0.110922  0  3.991242  0
C  C41  1  0.67946458  0.81411459  0.42901127  1  0  -0.075209  0  3.723178  0  0  -0.112332  0  4.00067  0  0  -0.115068  0  4.0152  0  0  0.01665  -0.110814  0  3.991218  0
C  C42  1  0.94398802  0.52862782  0.21451346  1  0  -0.059458  0  3.64373  0  0  -0.105835  0  3.909738  0  0  -0.106518  0  3.924151  0  0  0.021611  -0.105699  0  3.900647  0
C  C43  1  0.05600698  0.47137333  0.78548898  1  0  -0.059474  0  3.643947  0  0  -0.105766  0  3.909853  0  0  -0.106451  0  3.924268  0  0  0.021656  -0.10564  0  3.900757  0
C  C44  1  0.89905648  0.43597259  0.26316072  1  0  0.435686  0  3.800725  0  0  0.410604  0  4.075632  0  0  0.428426  0  4.082898  0  0  0.227204  0.39814  0  4.070954  0
C  C45  1  0.10093919  0.56402770  0.73684078  1  0  0.435667  0  3.800679  0  0  0.410612  0  4.075567  0  0  0.428433  0  4.082835  0  0  0.227182  0.398154  0  4.070882  0
C  C46  1  0.67631608  0.37372679  0.16257179  1  0  0.434331  0  3.81484  0  0  0.408933  0  4.089467  0  0  0.42741  0  4.095496  0  0  0.224565  0.396054  0  4.085571  0
C  C47  1  0.32367952  0.62626837  0.83742707  1  0  0.434414  0  3.814881  0  0  0.409042  0  4.089405  0  0  0.427519  0  4.09543  0  0  0.22458  0.396166  0  4.085508  0
C  C48  1  0.71324554  0.46665594  0.11383070  1  0  -0.040229  0  3.65852  0  0  -0.086911  0  3.922505  0  0  -0.0868  0  3.935958  0  0  0.027072  -0.087299  0  3.913939  0
C  C49  1  0.28674453  0.53333583  0.88616559  1  0  -0.040371  0  3.658891  0  0  -0.087017  0  3.922836  0  0  -0.086905  0  3.936289  0  0  0.027074  -0.087406  0  3.914267  0
C  C50  1  0.94133826  0.14444600  0.40271544  1  0  0.310297  0  3.784687  0  0  0.303689  0  4.0531  0  0  0.313901  0  4.069361  0  0  0.087945  0.296732  0  4.042032  0
C  C51  1  0.05866046  0.85555690  0.59728048  1  0  0.31019  0  3.784749  0  0  0.303564  0  4.053193  0  0  0.313783  0  4.06945  0  0  0.087852  0.29659  0  4.042146  0
C  C52  1  0.86499800  0.15175478  0.49072898  1  0  -0.265595  0  3.67961  0  0  -0.306851  0  3.940948  0  0  -0.313404  0  3.957775  0  0  -0.100433  -0.302413  0  3.929683  0
C  C53  1  0.13500420  0.84824892  0.50927201  1  0  -0.265625  0  3.679759  0  0  -0.306872  0  3.941088  0  0  -0.313424  0  3.957915  0  0  -0.10042  -0.302427  0  3.929827  0
C  C54  1  0.83026003  0.25184499  0.52478843  1  0  0.315444  0  3.778876  0  0  0.310718  0  4.043656  0  0  0.320665  0  4.060592  0  0  0.087777  0.303884  0  4.0321  0
C  C55  1  0.16974146  0.74815700  0.47521216  1  0  0.315521  0  3.778971  0  0  0.310821  0  4.043715  0  0  0.320755  0  4.060656  0  0  0.087845  0.303984  0  4.032164  0
C  C56  1  0.87065019  0.34247533  0.47446084  1  0  -0.257805  0  3.687061  0  0  -0.303506  0  3.953164  0  0  -0.309527  0  3.969146  0  0  -0.099601  -0.299438  0  3.942449  0
C  C57  1  0.12934724  0.65752923  0.52554166  1  0  -0.257873  0  3.687305  0  0  -0.303579  0  3.953333  0  0  -0.309609  0  3.969336  0  0  -0.099614  -0.299509  0  3.942617  0
C  C58  1  0.94817046  0.33136829  0.38764979  1  0  0.317518  0  3.780945  0  0  0.312519  0  4.045575  0  0  0.322997  0  4.061649  0  0  0.091684  0.305306  0  4.034634  0
C  C59  1  0.05182862  0.66863286  0.61234972  1  0  0.317453  0  3.78105  0  0  0.312463  0  4.045681  0  0  0.322939  0  4.061756  0  0  0.091664  0.305258  0  4.034728  0
C  C60  1  0.98564569  0.23345226  0.35049369  1  0  -0.254721  0  3.676877  0  0  -0.294771  0  3.931282  0  0  -0.301093  0  3.947775  0  0  -0.096518  -0.290478  0  3.920268  0
C  C61  1  0.01435378  0.76655231  0.64950813  1  0  -0.254704  0  3.676864  0  0  -0.294755  0  3.931279  0  0  -0.301075  0  3.947767  0  0  -0.096522  -0.290436  0  3.92029  0
C  C62  1  0.51789675  0.01085925  0.16978023  1  0  0.309319  0  3.777947  0  0  0.303266  0  4.041378  0  0  0.313375  0  4.057376  0  0  0.085508  0.296254  0  4.030567  0
C  C63  1  0.48210022  0.98913418  0.83021991  1  0  0.309467  0  3.777862  0  0  0.30338  0  4.04134  0  0  0.313492  0  4.057336  0  0  0.085534  0.296368  0  4.03053  0
C  C64  1  0.43826296  0.00406042  0.25583608  1  0  -0.251983  0  3.705011  0  0  -0.29328  0  3.966133  0  0  -0.298654  0  3.982444  0  0  -0.103157  -0.289695  0  3.955339  0
C  C65  1  0.56174196  0.99593983  0.74416590  1  0  -0.25191  0  3.704845  0  0  -0.293252  0  3.965995  0  0  -0.298626  0  3.982307  0  0  -0.103075  -0.289664  0  3.955201  0
C  C66  1  0.39692428  0.09822907  0.29933291  1  0  0.311479  0  3.786536  0  0  0.306715  0  4.049832  0  0  0.316628  0  4.065806  0  0  0.084543  0.299868  0  4.038984  0
C  C67  1  0.60307819  0.90176778  0.70066587  1  0  0.311443  0  3.786536  0  0  0.306758  0  4.049757  0  0  0.316668  0  4.065735  0  0  0.084539  0.2999  0  4.038913  0
C  C68  1  0.42978372  0.19587080  0.25821010  1  0  -0.268629  0  3.702224  0  0  -0.30976  0  3.960224  0  0  -0.316028  0  3.976939  0  0  -0.103324  -0.305523  0  3.949049  0
C  C69  1  0.57021426  0.80412523  0.74178592  1  0  -0.268645  0  3.702264  0  0  -0.309811  0  3.960256  0  0  -0.31608  0  3.97697  0  0  -0.103318  -0.305573  0  3.949082  0
C  C70  1  0.51085669  0.19838416  0.17309595  1  0  0.317075  0  3.771382  0  0  0.310405  0  4.037858  0  0  0.320584  0  4.054063  0  0  0.087525  0.303392  0  4.026854  0
C  C71  1  0.48914090  0.80160846  0.82689854  1  0  0.317082  0  3.771101  0  0  0.310437  0  4.037516  0  0  0.320616  0  4.053717  0  0  0.087583  0.303432  0  4.026505  0
C  C72  1  0.55690915  0.10708446  0.12742332  1  0  -0.250267  0  3.679325  0  0  -0.293292  0  3.942881  0  0  -0.298856  0  3.958502  0  0  -0.098854  -0.28953  0  3.93251  0
C  C73  1  0.44308711  0.89290986  0.87257225  1  0  -0.25036  0  3.679202  0  0  -0.293389  0  3.94283  0  0  -0.298948  0  3.958442  0  0  -0.098905  -0.289631  0  3.932455  0
I  I74  1  0.18485118  0.74377009  0.07391993  1  0  -0.456492  0  1.147835  0  0  -0.418543  0  1.479994  0  0  -0.435314  0  1.457262  0  0  -0.224993  -0.406419  0  1.495402  0
I  I75  1  0.81514824  0.25622673  0.92608340  1  0  -0.456516  0  1.147839  0  0  -0.418569  0  1.479985  0  0  -0.435341  0  1.45725  0  0  -0.224997  -0.406447  0  1.495393  0
I  I76  1  0.75103795  0.58952462  0.86613896  1  0  -0.472161  0  1.050398  0  0  -0.430274  0  1.351306  0  0  -0.446076  0  1.327536  0  0  -0.24217  -0.418802  0  1.367397  0
I  I77  1  0.24895880  0.41047820  0.13386707  1  0  -0.472172  0  1.050363  0  0  -0.430309  0  1.351301  0  0  -0.446112  0  1.327529  0  0  -0.242177  -0.418833  0  1.3674  0
N  N78  1  0.84708918  0.80067528  0.13874474  1  0  -0.201487  0  3.394462  0  0  -0.117387  0  3.657483  0  0  -0.129027  0  3.675999  0  0  -0.309704  -0.109284  0  3.644906  0
N  N79  1  0.15292128  0.19933095  0.86125956  1  0  -0.201355  0  3.394426  0  0  -0.117233  0  3.65741  0  0  -0.128889  0  3.675943  0  0  -0.309679  -0.109127  0  3.644826  0
N  N80  1  0.76730586  0.98344093  0.24150185  1  0  -0.44495  0  3.081889  0  0  -0.414884  0  3.337369  0  0  -0.428788  0  3.348867  0  0  -0.312958  -0.405302  0  3.329684  0
N  N81  1  0.23269043  0.01655595  0.75849583  1  0  -0.444911  0  3.08193  0  0  -0.414861  0  3.33739  0  0  -0.42876  0  3.348889  0  0  -0.312911  -0.405268  0  3.329702  0
N  N82  1  0.53946171  0.18179895  0.49934609  1  0  -0.454154  0  3.086265  0  0  -0.421503  0  3.338468  0  0  -0.436068  0  3.350408  0  0  -0.320407  -0.411476  0  3.33045  0
N  N83  1  0.46053875  0.81820304  0.50065445  1  0  -0.454127  0  3.086256  0  0  -0.421502  0  3.33847  0  0  -0.436065  0  3.350412  0  0  -0.320388  -0.411472  0  3.330448  0
N  N84  1  0.39386522  0.24387055  0.66920067  1  0  -0.214671  0  3.136782  0  0  -0.181854  0  3.411391  0  0  -0.185986  0  3.428253  0  0  -0.309319  -0.178445  0  3.399786  0
N  N85  1  0.60613937  0.75613401  0.33079983  1  0  -0.214843  0  3.136913  0  0  -0.182063  0  3.411518  0  0  -0.186196  0  3.428381  0  0  -0.309317  -0.178645  0  3.399904  0
N  N86  1  0.76716045  0.35959799  0.23759046  1  0  -0.445273  0  3.077751  0  0  -0.414723  0  3.332281  0  0  -0.427936  0  3.342518  0  0  -0.31479  -0.405622  0  3.325505  0
N  N87  1  0.23283489  0.64040143  0.76241320  1  0  -0.445303  0  3.077648  0  0  -0.41479  0  3.332173  0  0  -0.427999  0  3.342406  0  0  -0.314832  -0.405688  0  3.325393  0
N  N88  1  0.84763805  0.54169322  0.14089081  1  0  -0.207908  0  3.394109  0  0  -0.120745  0  3.65463  0  0  -0.133374  0  3.674116  0  0  -0.316958  -0.11203  0  3.641469  0
N  N89  1  0.15235173  0.45830283  0.85910715  1  0  -0.207899  0  3.394524  0  0  -0.120849  0  3.655122  0  0  -0.133479  0  3.674611  0  0  -0.317009  -0.112126  0  3.64195  0
O  O90  1  0.97727470  0.04419491  0.36604695  1  0  -0.312961  0  2.30047  0  0  -0.249824  0  2.527006  0  0  -0.267736  0  2.526525  0  0  -0.143704  -0.237197  0  2.526946  0
O  O91  1  0.02272784  0.95580966  0.63395345  1  0  -0.312926  0  2.300451  0  0  -0.249789  0  2.526977  0  0  -0.267716  0  2.526514  0  0  -0.143702  -0.237149  0  2.526929  0
O  O92  1  0.55394764  0.91456446  0.11983592  1  0  -0.301126  0  2.345542  0  0  -0.227603  0  2.563909  0  0  -0.247894  0  2.566459  0  0  -0.133561  -0.213135  0  2.561693  0
O  O93  1  0.44604867  0.08542981  0.88016593  1  0  -0.301215  0  2.345565  0  0  -0.227618  0  2.563874  0  0  -0.247912  0  2.566426  0  0  -0.133607  -0.21315  0  2.561659  0
O  O94  1  0.75815030  0.26505760  0.61558004  1  0  -0.319534  0  2.314933  0  0  -0.252039  0  2.540425  0  0  -0.27053  0  2.540196  0  0  -0.146363  -0.238785  0  2.540093  0
O  O95  1  0.24185084  0.73494353  0.38442036  1  0  -0.319468  0  2.31495  0  0  -0.252009  0  2.540465  0  0  -0.270474  0  2.540221  0  0  -0.146368  -0.238757  0  2.540138  0
O  O96  1  0.31768404  0.09524225  0.38693007  1  0  -0.313555  0  2.29345  0  0  -0.249415  0  2.517526  0  0  -0.266695  0  2.516269  0  0  -0.148599  -0.237  0  2.517875  0
O  O97  1  0.68231811  0.90475890  0.61306802  1  0  -0.313587  0  2.293381  0  0  -0.24947  0  2.51742  0  0  -0.266748  0  2.516164  0  0  -0.148633  -0.237041  0  2.517767  0
O  O98  1  0.99612991  0.42382428  0.33899414  1  0  -0.313518  0  2.33008  0  0  -0.245837  0  2.551998  0  0  -0.264939  0  2.552671  0  0  -0.141354  -0.232222  0  2.551104  0
O  O99  1  0.00386613  0.57617944  0.66100811  1  0  -0.313438  0  2.330108  0  0  -0.245789  0  2.552016  0  0  -0.264889  0  2.55269  0  0  -0.141301  -0.232178  0  2.551121  0
O  O100  1  0.54267292  0.29513369  0.12936362  1  0  -0.306143  0  2.352712  0  0  -0.236005  0  2.575791  0  0  -0.256101  0  2.577484  0  0  -0.136934  -0.221801  0  2.574277  0
O  O101  1  0.45732640  0.70485804  0.87063314  1  0  -0.306115  0  2.352718  0  0  -0.235957  0  2.57575  0  0  -0.256052  0  2.577439  0  0  -0.136935  -0.221768  0  2.574248  0
