# generated using pymatgen
data_CaH10(C2O)8
_symmetry_space_group_name_H-M   'P 1'
_cell_length_a   5.96267519
_cell_length_b   7.52471961
_cell_length_c   18.44552577
_cell_angle_alpha   91.88862735
_cell_angle_beta   97.05055027
_cell_angle_gamma   96.47770804
_symmetry_Int_Tables_number   1
_chemical_formula_structural   CaH10(C2O)8
_chemical_formula_sum   'Ca2 H20 C32 O16'
_cell_volume   815.18232181
_cell_formula_units_Z   2
loop_
 _symmetry_equiv_pos_site_id
 _symmetry_equiv_pos_as_xyz
  1  'x, y, z'
loop_
 _atom_site_type_symbol
 _atom_site_label
 _atom_site_symmetry_multiplicity
 _atom_site_fract_x
 _atom_site_fract_y
 _atom_site_fract_z
 _atom_site_occupancy
 _atom_site_hle17_bader_spin_density
 _atom_site_hle17_ddec_charge
 _atom_site_hle17_ddec_spin_density
 _atom_site_hle17_ddec_sum_bond_order
 _atom_site_hle17_magmom
 _atom_site_hse06_10hf_bader_spin_density
 _atom_site_hse06_10hf_ddec_charge
 _atom_site_hse06_10hf_ddec_spin_density
 _atom_site_hse06_10hf_ddec_sum_bond_order
 _atom_site_hse06_10hf_magmom
 _atom_site_hse06_bader_spin_density
 _atom_site_hse06_ddec_charge
 _atom_site_hse06_ddec_spin_density
 _atom_site_hse06_ddec_sum_bond_order
 _atom_site_hse06_magmom
 _atom_site_pbe_bader_spin_density
 _atom_site_pbe_cm5_charge
 _atom_site_pbe_ddec_charge
 _atom_site_pbe_ddec_spin_density
 _atom_site_pbe_ddec_sum_bond_order
 _atom_site_pbe_magmom
Ca  Ca0  1  0.02273694  0.27215097  0.04541075  1  0  1.561348  0  1.088329  0  0  1.431475  0  1.436362  0  0  1.476277  0  1.3885  0  0  0.908304  1.397999  0  1.470107  0
Ca  Ca1  1  0.97725665  0.72785392  0.95459119  1  0  1.561305  0  1.088382  0  0  1.43147  0  1.436348  0  0  1.476266  0  1.388493  0  0  0.908299  1.397961  0  1.470144  0
H  H2  1  0.86248680  0.39205745  0.80055579  1  0  0.098106  0  0.967334  0  0  0.102059  0  1.041537  0  0  0.106937  0  1.037335  0  0  0.11101  0.098447  0  1.044762  0
H  H3  1  0.13752425  0.60794062  0.19944510  1  0  0.098119  0  0.967391  0  0  0.102066  0  1.041589  0  0  0.106942  0  1.03739  0  0  0.111023  0.098464  0  1.044829  0
H  H4  1  0.08870069  0.05967927  0.74186325  1  0  0.117876  0  0.928511  0  0  0.124856  0  0.990543  0  0  0.129545  0  0.986942  0  0  0.114765  0.121445  0  0.993268  0
H  H5  1  0.91128653  0.94031757  0.25813732  1  0  0.117866  0  0.928614  0  0  0.124898  0  0.990578  0  0  0.129593  0  0.986981  0  0  0.114757  0.121483  0  0.993311  0
H  H6  1  0.14680589  0.10332946  0.47759050  1  0  0.113695  0  0.976472  0  0  0.116881  0  1.047806  0  0  0.12137  0  1.043856  0  0  0.107047  0.113627  0  1.050734  0
H  H7  1  0.85319283  0.89666588  0.52240775  1  0  0.113604  0  0.976556  0  0  0.116765  0  1.047944  0  0  0.121245  0  1.043997  0  0  0.106982  0.113513  0  1.050869  0
H  H8  1  0.36678159  0.20056485  0.37754263  1  0  0.09791  0  0.923688  0  0  0.111335  0  0.974198  0  0  0.114332  0  0.973238  0  0  0.108854  0.109107  0  0.975073  0
H  H9  1  0.63322070  0.79943180  0.62245522  1  0  0.097897  0  0.923666  0  0  0.111308  0  0.974209  0  0  0.114306  0  0.973248  0  0  0.108843  0.109078  0  0.975081  0
H  H10  1  0.76576503  0.35241274  0.40665810  1  0  0.102258  0  0.933626  0  0  0.112577  0  0.990928  0  0  0.116027  0  0.988799  0  0  0.107279  0.110045  0  0.992603  0
H  H11  1  0.23424158  0.64757862  0.59334203  1  0  0.102254  0  0.933537  0  0  0.112576  0  0.990845  0  0  0.116022  0  0.988715  0  0  0.107291  0.110043  0  0.992516  0
H  H12  1  0.93221670  0.41355758  0.53771725  1  0  0.094634  0  0.967876  0  0  0.102286  0  1.035812  0  0  0.105186  0  1.034254  0  0  0.105319  0.100203  0  1.036977  0
H  H13  1  0.06778404  0.58642847  0.46228317  1  0  0.094631  0  0.967809  0  0  0.102234  0  1.035813  0  0  0.105133  0  1.034257  0  0  0.105314  0.100152  0  1.036981  0
H  H14  1  0.76968741  0.54764275  0.09887991  1  0  0.427674  0  0.881923  0  0  0.389333  0  0.958143  0  0  0.400964  0  0.941575  0  0  0.300572  0.381153  0  0.96976  0
H  H15  1  0.23030999  0.45236483  0.90112273  1  0  0.42773  0  0.88185  0  0  0.389392  0  0.958068  0  0  0.401023  0  0.9415  0  0  0.300611  0.381212  0  0.969684  0
H  H16  1  0.78914902  0.42964252  0.16965108  1  0  0.432617  0  0.809412  0  0  0.418451  0  0.856032  0  0  0.425458  0  0.848684  0  0  0.338482  0.41342  0  0.861433  0
H  H17  1  0.21085275  0.57036096  0.83035005  1  0  0.432627  0  0.809445  0  0  0.418461  0  0.856071  0  0  0.425468  0  0.84872  0  0  0.338484  0.413429  0  0.861471  0
H  H18  1  0.51179760  0.26413413  0.09931084  1  0  0.431571  0  0.863998  0  0  0.402036  0  0.92507  0  0  0.412537  0  0.90963  0  0  0.301423  0.394542  0  0.93608  0
H  H19  1  0.48820406  0.73586924  0.90068758  1  0  0.43162  0  0.863935  0  0  0.402087  0  0.925005  0  0  0.412588  0  0.909565  0  0  0.301426  0.394594  0  0.936014  0
H  H20  1  0.38218731  0.06643191  0.08184911  1  0  0.428963  0  0.872726  0  0  0.395796  0  0.940437  0  0  0.40677  0  0.924539  0  0  0.297897  0.387953  0  0.95178  0
H  H21  1  0.61781222  0.93356877  0.91814868  1  0  0.42903  0  0.87263  0  0  0.395871  0  0.940348  0  0  0.406835  0  0.924455  0  0  0.297916  0.388038  0  0.951682  0
C  C22  1  0.69206472  0.32045443  0.78851630  1  0  -0.064279  0  3.681835  0  0  -0.096904  0  3.93208  0  0  -0.097273  0  3.949854  0  0  -0.065645  -0.096508  0  3.920218  0
C  C23  1  0.30794022  0.67954770  0.21148494  1  0  -0.064252  0  3.68191  0  0  -0.096885  0  3.932161  0  0  -0.097249  0  3.949934  0  0  -0.065658  -0.096518  0  3.920316  0
C  C24  1  0.56983668  0.26424558  0.84490205  1  0  -0.048392  0  3.699247  0  0  -0.035506  0  3.93611  0  0  -0.038427  0  3.953248  0  0  0.006037  -0.033905  0  3.925022  0
C  C25  1  0.43016470  0.73575525  0.15509959  1  0  -0.04831  0  3.699132  0  0  -0.035436  0  3.935967  0  0  -0.03836  0  3.953111  0  0  0.006077  -0.033807  0  3.92485  0
C  C26  1  0.34945268  0.17088502  0.82816067  1  0  -0.063317  0  3.711198  0  0  -0.050188  0  3.950989  0  0  -0.053525  0  3.968406  0  0  0.001873  -0.048175  0  3.939634  0
C  C27  1  0.65054581  0.82911971  0.17183765  1  0  -0.063358  0  3.711289  0  0  -0.050234  0  3.951056  0  0  -0.05357  0  3.968476  0  0  0.001892  -0.048229  0  3.939695  0
C  C28  1  0.25835342  0.13224759  0.75548507  1  0  -0.060269  0  3.675311  0  0  -0.095965  0  3.929476  0  0  -0.095913  0  3.946399  0  0  -0.065176  -0.095916  0  3.918154  0
C  C29  1  0.74164468  0.86775448  0.24451376  1  0  -0.060303  0  3.675448  0  0  -0.09607  0  3.929595  0  0  -0.09603  0  3.946529  0  0  -0.06521  -0.096018  0  3.91827  0
C  C30  1  0.38206105  0.18762125  0.69882914  1  0  -0.034125  0  3.739222  0  0  -0.025214  0  3.976724  0  0  -0.029232  0  3.999213  0  0  -0.006906  -0.022448  0  3.961371  0
C  C31  1  0.61793745  0.81237273  0.30116855  1  0  -0.034005  0  3.739046  0  0  -0.02504  0  3.976507  0  0  -0.029057  0  3.999  0  0  -0.00684  -0.022273  0  3.961152  0
C  C32  1  0.27808267  0.14485501  0.62200156  1  0  0.378863  0  3.760382  0  0  0.358715  0  4.024151  0  0  0.380217  0  4.027296  0  0  0.159456  0.344085  0  4.021809  0
C  C33  1  0.72191739  0.85514845  0.37799897  1  0  0.378873  0  3.760208  0  0  0.358655  0  4.024047  0  0  0.380157  0  4.02719  0  0  0.159472  0.344019  0  4.02171  0
C  C34  1  0.41200486  0.20794485  0.56336430  1  0  -0.059582  0  3.762257  0  0  -0.048934  0  3.99669  0  0  -0.055462  0  4.023044  0  0  -0.011643  -0.044533  0  3.978809  0
C  C35  1  0.58799282  0.79205454  0.43663449  1  0  -0.059542  0  3.762242  0  0  -0.04886  0  3.99665  0  0  -0.055385  0  4.022996  0  0  -0.011618  -0.04445  0  3.978767  0
C  C36  1  0.31766184  0.17395426  0.49022727  1  0  -0.055537  0  3.6827  0  0  -0.081495  0  3.93835  0  0  -0.082686  0  3.959151  0  0  -0.072242  -0.080472  0  3.924058  0
C  C37  1  0.68234146  0.82603719  0.50977438  1  0  -0.055434  0  3.682641  0  0  -0.08138  0  3.938299  0  0  -0.082559  0  3.959087  0  0  -0.072217  -0.080363  0  3.924009  0
C  C38  1  0.44324661  0.22752681  0.43419710  1  0  -0.041197  0  3.71096  0  0  -0.057881  0  3.967974  0  0  -0.060215  0  3.989609  0  0  -0.07362  -0.05618  0  3.953035  0
C  C39  1  0.55675355  0.77246714  0.56580011  1  0  -0.041271  0  3.711035  0  0  -0.057951  0  3.968082  0  0  -0.060287  0  3.989712  0  0  -0.073646  -0.056245  0  3.953131  0
C  C40  1  0.66587311  0.31289978  0.45049558  1  0  -0.047278  0  3.709322  0  0  -0.063737  0  3.966969  0  0  -0.065697  0  3.988082  0  0  -0.073657  -0.062221  0  3.952428  0
C  C41  1  0.33413662  0.68710093  0.54950420  1  0  -0.047132  0  3.709159  0  0  -0.063581  0  3.966814  0  0  -0.065533  0  3.98792  0  0  -0.07359  -0.06206  0  3.952266  0
C  C42  1  0.75986419  0.34775586  0.52317084  1  0  -0.0489  0  3.698534  0  0  -0.075161  0  3.953188  0  0  -0.076222  0  3.974525  0  0  -0.070698  -0.074361  0  3.938643  0
C  C43  1  0.24014832  0.65223011  0.47682892  1  0  -0.048939  0  3.698562  0  0  -0.075186  0  3.953257  0  0  -0.076245  0  3.974588  0  0  -0.070692  -0.074397  0  3.938726  0
C  C44  1  0.63433960  0.29848379  0.58007858  1  0  -0.049248  0  3.751466  0  0  -0.03847  0  3.983574  0  0  -0.044581  0  4.009133  0  0  -0.01048  -0.03424  0  3.966195  0
C  C45  1  0.36565894  0.70151024  0.41992020  1  0  -0.049341  0  3.751671  0  0  -0.038543  0  3.983759  0  0  -0.044655  0  4.009319  0  0  -0.010508  -0.034314  0  3.966382  0
C  C46  1  0.73689776  0.34499575  0.65663759  1  0  0.38581  0  3.748835  0  0  0.367769  0  4.01008  0  0  0.38987  0  4.012243  0  0  0.159651  0.352721  0  4.008383  0
C  C47  1  0.26309849  0.65500503  0.34336224  1  0  0.385902  0  3.748922  0  0  0.367817  0  4.010235  0  0  0.389918  0  4.0124  0  0  0.159673  0.352769  0  4.008537  0
C  C48  1  0.60077310  0.28303789  0.71537861  1  0  -0.042261  0  3.741232  0  0  -0.032817  0  3.975251  0  0  -0.037594  0  3.998292  0  0  -0.008087  -0.029561  0  3.959532  0
C  C49  1  0.39922469  0.71696161  0.28462290  1  0  -0.042405  0  3.741373  0  0  -0.032973  0  3.975404  0  0  -0.037749  0  3.99844  0  0  -0.008134  -0.02971  0  3.959685  0
C  C50  1  0.68383816  0.28729195  0.92233356  1  0  0.683898  0  3.908141  0  0  0.628774  0  4.208121  0  0  0.663628  0  4.198683  0  0  0.22648  0.605004  0  4.213829  0
C  C51  1  0.31616181  0.71271143  0.07766480  1  0  0.683862  0  3.908034  0  0  0.628805  0  4.207905  0  0  0.663659  0  4.198469  0  0  0.22653  0.605023  0  4.21361  0
C  C52  1  0.20803582  0.12413134  0.88855423  1  0  0.700341  0  3.890026  0  0  0.64398  0  4.195262  0  0  0.678903  0  4.185181  0  0  0.237302  0.620039  0  4.201511  0
C  C53  1  0.79196880  0.87586821  0.11144915  1  0  0.700306  0  3.890009  0  0  0.644005  0  4.195131  0  0  0.678928  0  4.185051  0  0  0.237351  0.620064  0  4.201381  0
O  O54  1  0.08789994  0.05735065  0.60852558  1  0  -0.443709  0  1.940764  0  0  -0.400892  0  2.14993  0  0  -0.418031  0  2.14748  0  0  -0.246478  -0.389261  0  2.151544  0
O  O55  1  0.91209931  0.94265822  0.39147605  1  0  -0.443742  0  1.940699  0  0  -0.400868  0  2.149844  0  0  -0.418006  0  2.147387  0  0  -0.246473  -0.389233  0  2.15146  0
O  O56  1  0.92600312  0.43420536  0.67177541  1  0  -0.462746  0  1.882643  0  0  -0.424412  0  2.080195  0  0  -0.440368  0  2.076084  0  0  -0.266774  -0.413638  0  2.082988  0
O  O57  1  0.07399065  0.56580086  0.32822600  1  0  -0.462735  0  1.882557  0  0  -0.424381  0  2.080138  0  0  -0.440336  0  2.076027  0  0  -0.266776  -0.413608  0  2.082929  0
O  O58  1  0.68409350  0.14851252  0.95983324  1  0  -0.66209  0  1.971663  0  0  -0.599462  0  2.197883  0  0  -0.626284  0  2.187989  0  0  -0.315318  -0.580474  0  2.2042  0
O  O59  1  0.31590168  0.85149228  0.04016658  1  0  -0.662091  0  1.971684  0  0  -0.599491  0  2.197852  0  0  -0.626314  0  2.187965  0  0  -0.315347  -0.580491  0  2.204164  0
O  O60  1  0.78737979  0.43856588  0.94652295  1  0  -0.731128  0  2.003105  0  0  -0.667737  0  2.254649  0  0  -0.697013  0  2.244234  0  0  -0.383688  -0.646703  0  2.261055  0
O  O61  1  0.21261821  0.56143496  0.05347857  1  0  -0.731147  0  2.0031  0  0  -0.667776  0  2.254598  0  0  -0.697053  0  2.244182  0  0  -0.383753  -0.646743  0  2.261004  0
O  O62  1  0.19178923  0.25443859  0.93352407  1  0  -0.706761  0  2.032482  0  0  -0.639155  0  2.269328  0  0  -0.668286  0  2.259537  0  0  -0.338483  -0.618434  0  2.275496  0
O  O63  1  0.80820743  0.74556487  0.06647580  1  0  -0.706734  0  2.032389  0  0  -0.639158  0  2.269181  0  0  -0.668284  0  2.25939  0  0  -0.338545  -0.618429  0  2.275348  0
O  O64  1  0.11306921  0.96715822  0.89020673  1  0  -0.670532  0  1.959931  0  0  -0.615131  0  2.204414  0  0  -0.642338  0  2.193193  0  0  -0.3571  -0.595511  0  2.211434  0
O  O65  1  0.88693048  0.03284262  0.10979485  1  0  -0.670514  0  1.959936  0  0  -0.615127  0  2.204384  0  0  -0.642337  0  2.193165  0  0  -0.357089  -0.595512  0  2.2114  0
O  O66  1  0.77249265  0.42116056  0.11647810  1  0  -0.86232  0  1.852836  0  0  -0.805202  0  2.037944  0  0  -0.825788  0  2.010323  0  0  -0.581194  -0.790489  0  2.057087  0
O  O67  1  0.22750618  0.57884563  0.88352349  1  0  -0.862376  0  1.85283  0  0  -0.805277  0  2.037949  0  0  -0.825862  0  2.010325  0  0  -0.581231  -0.790562  0  2.057088  0
O  O68  1  0.36659557  0.18874711  0.10117768  1  0  -0.901892  0  1.784405  0  0  -0.852065  0  1.959454  0  0  -0.873093  0  1.927042  0  0  -0.644573  -0.836752  0  1.982132  0
O  O69  1  0.63340729  0.81125351  0.89881914  1  0  -0.90199  0  1.784273  0  0  -0.852185  0  1.959263  0  0  -0.873204  0  1.926897  0  0  -0.644601  -0.836883  0  1.981915  0
