# generated using pymatgen
data_HoH6C6NO8
_symmetry_space_group_name_H-M   'P 1'
_cell_length_a   6.69944544
_cell_length_b   7.84513260
_cell_length_c   9.17330971
_cell_angle_alpha   95.77706581
_cell_angle_beta   111.02996091
_cell_angle_gamma   94.14015324
_symmetry_Int_Tables_number   1
_chemical_formula_structural   HoH6C6NO8
_chemical_formula_sum   'Ho2 H12 C12 N2 O16'
_cell_volume   444.67608209
_cell_formula_units_Z   2
loop_
 _symmetry_equiv_pos_site_id
 _symmetry_equiv_pos_as_xyz
  1  'x, y, z'
loop_
 _atom_site_type_symbol
 _atom_site_label
 _atom_site_symmetry_multiplicity
 _atom_site_fract_x
 _atom_site_fract_y
 _atom_site_fract_z
 _atom_site_occupancy
 _atom_site_hle17_bader_spin_density
 _atom_site_hle17_ddec_charge
 _atom_site_hle17_ddec_spin_density
 _atom_site_hle17_ddec_sum_bond_order
 _atom_site_hle17_magmom
 _atom_site_hse06_10hf_bader_spin_density
 _atom_site_hse06_10hf_ddec_charge
 _atom_site_hse06_10hf_ddec_spin_density
 _atom_site_hse06_10hf_ddec_sum_bond_order
 _atom_site_hse06_10hf_magmom
 _atom_site_hse06_bader_spin_density
 _atom_site_hse06_ddec_charge
 _atom_site_hse06_ddec_spin_density
 _atom_site_hse06_ddec_sum_bond_order
 _atom_site_hse06_magmom
 _atom_site_pbe_bader_spin_density
 _atom_site_pbe_cm5_charge
 _atom_site_pbe_ddec_charge
 _atom_site_pbe_ddec_spin_density
 _atom_site_pbe_ddec_sum_bond_order
 _atom_site_pbe_magmom
Ho  Ho0  1  0.37427314  0.76366753  0.21594787  1  0  2.264648  0  1.653239  0  0  2.202703  0  1.978129  0  0  2.248752  0  1.938389  0  0  1.531202  2.087261  0  2.161427  0
Ho  Ho1  1  0.62572843  0.23634193  0.78404746  1  0  2.264707  0  1.653036  0  0  2.202754  0  1.977906  0  0  2.248796  0  1.938174  0  0  1.531265  2.087362  0  2.161121  0
H  H2  1  0.75428305  0.26433558  0.38282412  1  0  0.126385  0  0.884336  0  0  0.139548  0  0.939541  0  0  0.142202  0  0.937523  0  0  0.132683  0.13756  0  0.941325  0
H  H3  1  0.24571832  0.73565972  0.61718521  1  0  0.126298  0  0.884296  0  0  0.139477  0  0.939531  0  0  0.14213  0  0.937512  0  0  0.132643  0.137485  0  0.941316  0
H  H4  1  0.96441361  0.22799069  0.55665496  1  0  0.129342  0  0.921815  0  0  0.139791  0  0.981797  0  0  0.142599  0  0.980285  0  0  0.130945  0.137541  0  0.983292  0
H  H5  1  0.03558347  0.77200845  0.44335250  1  0  0.129328  0  0.921785  0  0  0.139776  0  0.981796  0  0  0.142586  0  0.980282  0  0  0.130992  0.137529  0  0.983291  0
H  H6  1  0.03056338  0.83674937  0.77111106  1  0  0.129355  0  0.918364  0  0  0.139315  0  0.980259  0  0  0.141306  0  0.979202  0  0  0.125817  0.137503  0  0.981965  0
H  H7  1  0.96942996  0.16324588  0.22889292  1  0  0.129435  0  0.918364  0  0  0.139382  0  0.980291  0  0  0.141375  0  0.979233  0  0  0.125823  0.137569  0  0.982  0
H  H8  1  0.78474654  0.71388780  0.74069431  1  0  0.140352  0  0.903847  0  0  0.152827  0  0.959242  0  0  0.156196  0  0.956494  0  0  0.136499  0.150063  0  0.962078  0
H  H9  1  0.21524268  0.28611257  0.25930686  1  0  0.140421  0  0.903718  0  0  0.152919  0  0.959114  0  0  0.156292  0  0.956361  0  0  0.136537  0.15015  0  0.961953  0
H  H10  1  0.93022977  0.57431045  0.09339808  1  0  0.43341  0  0.860772  0  0  0.408554  0  0.915611  0  0  0.417603  0  0.902296  0  0  0.310798  0.401824  0  0.925077  0
H  H11  1  0.06977260  0.42568098  0.90660245  1  0  0.43333  0  0.860973  0  0  0.408456  0  0.915781  0  0  0.417506  0  0.902466  0  0  0.310751  0.401726  0  0.925249  0
H  H12  1  0.88982831  0.76971355  0.11697878  1  0  0.452993  0  0.835295  0  0  0.423548  0  0.895204  0  0  0.434934  0  0.878534  0  0  0.305674  0.414538  0  0.908341  0
H  H13  1  0.11016794  0.23028040  0.88301167  1  0  0.453031  0  0.835214  0  0  0.423557  0  0.89517  0  0  0.434941  0  0.878505  0  0  0.305666  0.414547  0  0.908308  0
C  C14  1  0.84413325  0.46654148  0.57123872  1  0  0.57858  0  3.743679  0  0  0.527213  0  4.042475  0  0  0.55834  0  4.038398  0  0  0.273484  0.505556  0  4.042536  0
C  C15  1  0.15586025  0.53345505  0.42876432  1  0  0.578369  0  3.7437  0  0  0.527056  0  4.042438  0  0  0.558173  0  4.038373  0  0  0.273461  0.505396  0  4.042494  0
C  C16  1  0.90423573  0.32480454  0.47767218  1  0  -0.135186  0  3.635916  0  0  -0.194867  0  3.891885  0  0  -0.194944  0  3.897872  0  0  -0.038108  -0.195083  0  3.889314  0
C  C17  1  0.09576242  0.67519074  0.52233414  1  0  -0.134961  0  3.635617  0  0  -0.194711  0  3.891692  0  0  -0.194779  0  3.897671  0  0  -0.038129  -0.194935  0  3.889122  0
C  C18  1  0.88358001  0.76803853  0.67978103  1  0  -0.162375  0  3.582105  0  0  -0.219932  0  3.824833  0  0  -0.219989  0  3.829594  0  0  -0.047592  -0.220577  0  3.824616  0
C  C19  1  0.11641046  0.23195927  0.32022025  1  0  -0.162516  0  3.582144  0  0  -0.220205  0  3.825071  0  0  -0.220269  0  3.829831  0  0  -0.047687  -0.220843  0  3.824847  0
C  C20  1  0.75811378  0.89544778  0.57655135  1  0  0.778192  0  3.789498  0  0  0.735348  0  4.088441  0  0  0.770063  0  4.075719  0  0  0.249206  0.710386  0  4.092695  0
C  C21  1  0.24189052  0.10455783  0.42345089  1  0  0.778174  0  3.789496  0  0  0.735406  0  4.088349  0  0  0.770123  0  4.075622  0  0  0.249265  0.710454  0  4.092586  0
C  C22  1  0.60985626  0.96523157  0.01668700  1  0  0.556192  0  3.941066  0  0  0.509823  0  4.251893  0  0  0.539939  0  4.241322  0  0  0.215022  0.489573  0  4.250104  0
C  C23  1  0.39014480  0.03477527  0.98328944  1  0  0.556676  0  3.940523  0  0  0.510376  0  4.251257  0  0  0.540489  0  4.240681  0  0  0.215279  0.49013  0  4.249469  0
C  C24  1  0.58554682  0.47351246  0.07406689  1  0  0.542995  0  3.9692  0  0  0.50005  0  4.27452  0  0  0.529665  0  4.264685  0  0  0.204064  0.480297  0  4.272359  0
C  C25  1  0.41446420  0.52648291  0.92594929  1  0  0.542873  0  3.969524  0  0  0.499983  0  4.274759  0  0  0.529598  0  4.264926  0  0  0.204025  0.480235  0  4.272595  0
N  N26  1  0.93805196  0.62710615  0.59048608  1  0  -0.129884  0  3.436003  0  0  -0.050756  0  3.670672  0  0  -0.069412  0  3.691207  0  0  -0.253341  -0.038861  0  3.65856  0
N  N27  1  0.06194813  0.37289171  0.40951877  1  0  -0.1298  0  3.436215  0  0  -0.050653  0  3.670836  0  0  -0.069302  0  3.691377  0  0  -0.253354  -0.038759  0  3.658717  0
O  O28  1  0.70721986  0.42788684  0.63107066  1  0  -0.684514  0  2.064034  0  0  -0.65336  0  2.327707  0  0  -0.67674  0  2.317355  0  0  -0.382398  -0.624528  0  2.337448  0
O  O29  1  0.29277608  0.57211614  0.36892811  1  0  -0.684461  0  2.063899  0  0  -0.65331  0  2.327525  0  0  -0.676697  0  2.317193  0  0  -0.382385  -0.624468  0  2.337261  0
O  O30  1  0.74794225  0.03966035  0.64625855  1  0  -0.748896  0  2.081657  0  0  -0.711667  0  2.343548  0  0  -0.737308  0  2.330872  0  0  -0.405649  -0.680887  0  2.355739  0
O  O31  1  0.25206302  0.96034138  0.35373163  1  0  -0.748934  0  2.08149  0  0  -0.711685  0  2.343283  0  0  -0.737336  0  2.330617  0  0  -0.405746  -0.680905  0  2.355472  0
O  O32  1  0.67537753  0.85051699  0.42883782  1  0  -0.748954  0  2.067141  0  0  -0.715675  0  2.330355  0  0  -0.74031  0  2.317328  0  0  -0.4173  -0.684899  0  2.342983  0
O  O33  1  0.32462371  0.14947828  0.57115621  1  0  -0.748901  0  2.067299  0  0  -0.715631  0  2.330479  0  0  -0.740264  0  2.317449  0  0  -0.417256  -0.684871  0  2.343097  0
O  O34  1  0.72171494  0.01503095  0.94082773  1  0  -0.633992  0  2.053364  0  0  -0.59981  0  2.299074  0  0  -0.621816  0  2.289543  0  0  -0.364868  -0.574172  0  2.307581  0
O  O35  1  0.27828706  0.98497075  0.05915287  1  0  -0.634289  0  2.053084  0  0  -0.600162  0  2.298794  0  0  -0.62217  0  2.289258  0  0  -0.365015  -0.574517  0  2.307305  0
O  O36  1  0.66007579  0.86202973  0.11933147  1  0  -0.668887  0  2.091809  0  0  -0.621313  0  2.325389  0  0  -0.64687  0  2.317684  0  0  -0.337639  -0.595413  0  2.332295  0
O  O37  1  0.33993052  0.13796813  0.88065428  1  0  -0.669114  0  2.091755  0  0  -0.621534  0  2.325318  0  0  -0.647084  0  2.31761  0  0  -0.337752  -0.595642  0  2.332226  0
O  O38  1  0.72336128  0.38250427  0.04931509  1  0  -0.691569  0  2.093292  0  0  -0.650179  0  2.335051  0  0  -0.674577  0  2.327553  0  0  -0.367669  -0.624012  0  2.34155  0
O  O39  1  0.27663695  0.61749103  0.95070106  1  0  -0.691492  0  2.093072  0  0  -0.650103  0  2.334787  0  0  -0.674505  0  2.327297  0  0  -0.367686  -0.62393  0  2.34128  0
O  O40  1  0.57897882  0.52734748  0.20601760  1  0  -0.62388  0  2.034522  0  0  -0.593958  0  2.283715  0  0  -0.614998  0  2.274241  0  0  -0.355518  -0.569784  0  2.291647  0
O  O41  1  0.42102934  0.47266205  0.79400124  1  0  -0.623895  0  2.03502  0  0  -0.593946  0  2.284131  0  0  -0.614983  0  2.274658  0  0  -0.355478  -0.569759  0  2.292021  0
O  O42  1  0.99718653  0.69312692  0.10501168  1  0  -0.904319  0  1.866057  0  0  -0.867245  0  2.053173  0  0  -0.884671  0  2.021208  0  0  -0.645293  -0.843963  0  2.082403  0
O  O43  1  0.00281419  0.30687609  0.89498615  1  0  -0.904264  0  1.866137  0  0  -0.867161  0  2.053228  0  0  -0.884585  0  2.021268  0  0  -0.645237  -0.843879  0  2.082453  0
