# generated using pymatgen
data_CuH8C4N2(ClO2)2
_symmetry_space_group_name_H-M   'P 1'
_cell_length_a   5.50935486
_cell_length_b   8.97908719
_cell_length_c   10.55011137
_cell_angle_alpha   114.30339104
_cell_angle_beta   89.99981403
_cell_angle_gamma   107.86123318
_symmetry_Int_Tables_number   1
_chemical_formula_structural   CuH8C4N2(ClO2)2
_chemical_formula_sum   'Cu2 H16 C8 N4 Cl4 O8'
_cell_volume   447.90720994
_cell_formula_units_Z   2
loop_
 _symmetry_equiv_pos_site_id
 _symmetry_equiv_pos_as_xyz
  1  'x, y, z'
loop_
 _atom_site_type_symbol
 _atom_site_label
 _atom_site_symmetry_multiplicity
 _atom_site_fract_x
 _atom_site_fract_y
 _atom_site_fract_z
 _atom_site_occupancy
 _atom_site_hle17_ddec_charge
 _atom_site_hle17_ddec_spin_density
 _atom_site_hle17_ddec_sum_bond_order
 _atom_site_hle17_magmom
 _atom_site_hse06_10hf_ddec_charge
 _atom_site_hse06_10hf_ddec_spin_density
 _atom_site_hse06_10hf_ddec_sum_bond_order
 _atom_site_hse06_10hf_magmom
 _atom_site_hse06_ddec_charge
 _atom_site_hse06_ddec_spin_density
 _atom_site_hse06_ddec_sum_bond_order
 _atom_site_hse06_magmom
 _atom_site_pbe_cm5_charge
 _atom_site_pbe_ddec_charge
 _atom_site_pbe_ddec_spin_density
 _atom_site_pbe_ddec_sum_bond_order
 _atom_site_pbe_magmom
Cu  Cu0  1  0.50000237  0.50000116  0.00000367  1  0.943183  -0.675403  1.757624  -0.489  0.936078  -0.781893  2.170678  -0.617  1.034847  -0.858279  2.079235  -0.702  0.570021  0.875255  -0.720311  2.231802  -0.558
Cu  Cu1  1  0.00000376  0.49999632  0.49999732  1  0.942565  0.675306  1.757342  0.489  0.935161  0.781753  2.170782  0.617  1.034278  0.858098  2.078638  0.702  0.569622  0.874407  0.720138  2.231947  0.558
H  H2  1  0.28367980  0.46003355  0.76421998  1  0.416271  -0.000334  0.886228  0.0  0.38656  -0.000715  0.954436  -0.001  0.398786  -0.000533  0.937115  -0.001  0.288297  0.378017  -0.000816  0.966539  -0.001
H  H3  1  0.82362464  0.53995837  0.73574686  1  0.417154  0.000327  0.885384  0.0  0.387436  0.000708  0.953339  0.001  0.399627  0.000528  0.936082  0.001  0.28881  0.378887  0.000811  0.96545  0.001
H  H4  1  0.71632630  0.53996889  0.23577979  1  0.416252  -0.000335  0.8862  0.0  0.386541  -0.000715  0.954451  -0.001  0.398768  -0.000534  0.937127  -0.001  0.288289  0.377995  -0.000816  0.966554  -0.001
H  H5  1  0.17637627  0.46003368  0.26424737  1  0.417201  0.000326  0.885286  0.0  0.387435  0.000708  0.953344  0.001  0.399621  0.000528  0.936096  0.001  0.288797  0.378885  0.000811  0.965455  0.001
H  H6  1  0.18547931  0.59617685  0.89232506  1  0.419343  -0.000426  0.883164  0.0  0.390411  -0.000775  0.94679  -0.001  0.402744  -0.000582  0.929282  -0.001  0.289708  0.381773  -0.000896  0.959069  -0.001
H  H7  1  0.58937339  0.40375166  0.60761866  1  0.421431  0.000418  0.882279  0.0  0.392075  0.00077  0.945038  0.001  0.404419  0.000577  0.927495  0.001  0.290722  0.383463  0.000889  0.957289  0.001
H  H8  1  0.81452251  0.40382428  0.10767805  1  0.419405  -0.000426  0.883109  0.0  0.390474  -0.000775  0.94671  -0.001  0.402809  -0.000582  0.9292  -0.001  0.289732  0.381836  -0.000896  0.958989  -0.001
H  H9  1  0.41062882  0.59624299  0.39237933  1  0.421376  0.000419  0.882325  0.0  0.392022  0.00077  0.945106  0.001  0.404364  0.000578  0.927565  0.001  0.290716  0.383411  0.000889  0.957354  0.001
H  H10  1  0.29184532  0.89974648  0.09460825  1  0.132585  0.000111  0.974259  0.0  0.139218  3.2e-05  1.03502  0.0  0.14412  4.7e-05  1.031117  0.0  0.117761  0.135598  1e-05  1.0382  0.0
H  H11  1  0.39197575  0.10005919  0.40525951  1  0.133676  -0.000112  0.973749  0.0  0.140681  -3.3e-05  1.033937  0.0  0.145574  -4.8e-05  1.030003  0.0  0.118624  0.13706  -1e-05  1.037137  0.0
H  H12  1  0.70814068  0.10025206  0.90539395  1  0.132534  0.00011  0.974378  0.0  0.139178  3.2e-05  1.035139  0.0  0.144083  4.7e-05  1.031223  0.0  0.117732  0.135562  1e-05  1.038322  0.0
H  H13  1  0.60803035  0.89994324  0.59474026  1  0.13365  -0.000112  0.973821  0.0  0.140657  -3.3e-05  1.033975  0.0  0.145534  -4.8e-05  1.030061  0.0  0.118627  0.137035  -1e-05  1.037179  0.0
H  H14  1  0.63696698  0.77865044  0.82152513  1  0.14202  2.7e-05  0.945657  0.0  0.146834  0.000106  1.007063  0.0  0.152005  8.5e-05  1.001801  0.0  0.128843  0.14299  0.000119  1.01114  0.0
H  H15  1  0.85853127  0.22148943  0.67848388  1  0.142939  -2.5e-05  0.945155  0.0  0.147847  -0.000104  1.006314  0.0  0.153024  -8.4e-05  1.000928  0.0  0.129955  0.144073  -0.000116  1.010306  0.0
H  H16  1  0.36302940  0.22135071  0.17847229  1  0.142019  2.4e-05  0.945699  0.0  0.146818  0.000106  1.007115  0.0  0.152002  8.5e-05  1.001838  0.0  0.128842  0.142956  0.000119  1.011201  0.0
H  H17  1  0.14146886  0.77851559  0.32152343  1  0.142846  -2.3e-05  0.945193  0.0  0.14774  -0.000104  1.006385  0.0  0.152913  -8.4e-05  1.000995  0.0  0.129884  0.143958  -0.000116  1.010393  0.0
C  C18  1  0.16424029  0.94776040  0.05432717  1  -0.007262  0.00042  3.563552  0.0  -0.04397  0.000441  3.82158  0.0  -0.039549  0.000382  3.82995  0.0  0.052088  -0.046964  0.000414  3.816508  0.0
C  C19  1  0.21638267  0.05210845  0.44557031  1  -0.008246  -0.000419  3.561467  0.0  -0.045015  -0.00044  3.819087  0.0  -0.040599  -0.000381  3.827491  0.0  0.051507  -0.048035  -0.000433  3.814075  0.0
C  C20  1  0.83572458  0.05222127  0.94566533  1  -0.007274  0.000455  3.563327  0.0  -0.044006  0.000441  3.821398  0.0  -0.039579  0.000381  3.829773  0.0  0.052048  -0.047004  0.000414  3.816341  0.0
C  C21  1  0.78361669  0.94789140  0.55442572  1  -0.008284  -0.000434  3.561882  0.0  -0.044977  -0.000441  3.819441  0.0  -0.040541  -0.00038  3.82784  0.0  0.051434  -0.048  -0.000432  3.814434  0.0
C  C22  1  0.79906657  0.87882565  0.89958015  1  0.001899  0.000497  3.577646  0.0  -0.038991  0.000585  3.843292  0.0  -0.033136  0.000432  3.849886  0.0  0.052905  -0.042975  0.000732  3.839364  0.0
C  C23  1  0.92041248  0.12126690  0.60042865  1  0.000396  -0.00049  3.578932  0.0  -0.040774  -0.000568  3.844846  0.0  -0.034849  -0.000422  3.851428  0.0  0.051014  -0.044833  -0.000735  3.840917  0.0
C  C24  1  0.20092475  0.12116900  0.10041974  1  0.001829  0.000538  3.577511  0.0  -0.039042  0.000585  3.843131  0.0  -0.033189  0.000431  3.849717  0.0  0.052886  -0.043007  0.000733  3.8392  0.0
C  C25  1  0.07959750  0.87872515  0.39957790  1  0.000499  -0.000512  3.578656  0.0  -0.04061  -0.000568  3.844564  0.0  -0.034686  -0.00042  3.851161  0.0  0.051013  -0.04467  -0.000735  3.840629  0.0
N  N26  1  0.96297473  0.82633000  0.95394827  1  0.300559  0.000394  3.720645  0.0  0.340824  0.000259  3.992037  0.0  0.344463  0.000134  4.013312  0.0  -0.106162  0.337914  0.000405  3.977618  0.0
N  N27  1  0.13674063  0.17367249  0.54597681  1  0.299904  -0.000417  3.719456  -0.001  0.339833  -0.000277  3.991038  0.0  0.343476  -0.000143  4.012323  0.0  -0.106751  0.336909  -0.000401  3.976625  0.0
N  N28  1  0.03702981  0.17368022  0.04605234  1  0.300419  0.000374  3.720065  0.0  0.340706  0.000257  3.991475  0.0  0.344334  0.000135  4.012759  0.0  -0.106151  0.337802  0.000406  3.977048  0.0
N  N29  1  0.86325523  0.82633125  0.45402627  1  0.299832  -0.000407  3.719631  -0.001  0.339716  -0.000275  3.991211  0.0  0.34336  -0.000143  4.012494  0.0  -0.106815  0.336792  -0.000401  3.976792  0.0
Cl  Cl30  1  0.47119230  0.23549644  0.83013519  1  -0.533437  -0.108924  0.927436  -0.128  -0.52405  -0.068955  1.205999  -0.086  -0.558949  -0.053913  1.184405  -0.07  -0.316759  -0.501536  -0.075936  1.221808  -0.092
Cl  Cl31  1  0.23567773  0.76444638  0.66987632  1  -0.533454  0.108854  0.927469  0.128  -0.524238  0.068939  1.206272  0.086  -0.559179  0.053912  1.184591  0.07  -0.316703  -0.501626  0.075838  1.222057  0.092
Cl  Cl32  1  0.52880356  0.76450730  0.16987073  1  -0.53345  -0.108915  0.927411  -0.128  -0.52406  -0.068951  1.205984  -0.086  -0.558957  -0.05391  1.184393  -0.07  -0.316769  -0.501548  -0.075937  1.22179  -0.092
Cl  Cl33  1  0.76434444  0.23554828  0.33011504  1  -0.533452  0.10886  0.927504  0.128  -0.524253  0.068942  1.206346  0.086  -0.559196  0.053914  1.18466  0.07  -0.316704  -0.501638  0.075843  1.222127  0.092
O  O34  1  0.32947951  0.54885957  0.86445677  1  -0.827962  -0.056823  2.070788  -0.075  -0.786423  -0.045017  2.307669  -0.063  -0.82312  -0.036476  2.270499  -0.054  -0.589514  -0.762016  -0.049466  2.333676  -0.067
O  O35  1  0.78066494  0.45102584  0.63552865  1  -0.830453  0.056997  2.070112  0.075  -0.788392  0.045139  2.305702  0.063  -0.825218  0.036581  2.268556  0.054  -0.590717  -0.764023  0.049611  2.331824  0.067
O  O36  1  0.67051505  0.45114157  0.13554350  1  -0.82804  -0.05683  2.070819  -0.075  -0.786514  -0.045021  2.307743  -0.063  -0.823211  -0.036479  2.270555  -0.054  -0.589542  -0.762102  -0.04947  2.333748  -0.067
O  O37  1  0.21933843  0.54896751  0.36447079  1  -0.830469  0.057013  2.070034  0.075  -0.788369  0.045148  2.305741  0.063  -0.825192  0.036587  2.268606  0.054  -0.590732  -0.763998  0.049622  2.33186  0.067
O  O38  1  0.92552607  0.66035159  0.91065524  1  -0.515574  0.000712  1.868632  0.0  -0.478326  0.00095  2.101873  0.0  -0.504627  0.000994  2.098165  0.0  -0.202188  -0.460322  0.001025  2.104893  0.001
O  O39  1  0.26546896  0.33961532  0.58927130  1  -0.514526  -0.000759  1.869269  0.0  -0.477044  -0.000981  2.102534  0.0  -0.503462  -0.001004  2.098904  0.0  -0.201132  -0.459071  -0.000968  2.105547  0.0
O  O40  1  0.07448653  0.33968199  0.08935545  1  -0.515517  0.000697  1.868455  0.0  -0.47827  0.000952  2.101722  0.0  -0.504571  0.000995  2.098016  0.0  -0.202192  -0.460268  0.001026  2.104743  0.001
O  O41  1  0.73453364  0.66039101  0.41073363  1  -0.514386  -0.000754  1.869236  0.0  -0.476921  -0.000981  2.102552  0.0  -0.503339  -0.001005  2.09892  0.0  -0.201046  -0.458945  -0.000968  2.10556  0.0
