# generated using pymatgen
data_ZnPH5C2N4O3
_symmetry_space_group_name_H-M   'P 1'
_cell_length_a   8.19096321
_cell_length_b   9.16396331
_cell_length_c   9.83726804
_cell_angle_alpha   103.73950957
_cell_angle_beta   89.99998585
_cell_angle_gamma   90.00001373
_symmetry_Int_Tables_number   1
_chemical_formula_structural   ZnPH5C2N4O3
_chemical_formula_sum   'Zn4 P4 H20 C8 N16 O12'
_cell_volume   717.27297888
_cell_formula_units_Z   4
loop_
 _symmetry_equiv_pos_site_id
 _symmetry_equiv_pos_as_xyz
  1  'x, y, z'
loop_
 _atom_site_type_symbol
 _atom_site_label
 _atom_site_symmetry_multiplicity
 _atom_site_fract_x
 _atom_site_fract_y
 _atom_site_fract_z
 _atom_site_occupancy
 _atom_site_hle17_bader_spin_density
 _atom_site_hle17_ddec_charge
 _atom_site_hle17_ddec_spin_density
 _atom_site_hle17_ddec_sum_bond_order
 _atom_site_hle17_magmom
 _atom_site_hse06_10hf_bader_spin_density
 _atom_site_hse06_10hf_ddec_charge
 _atom_site_hse06_10hf_ddec_spin_density
 _atom_site_hse06_10hf_ddec_sum_bond_order
 _atom_site_hse06_10hf_magmom
 _atom_site_hse06_bader_spin_density
 _atom_site_hse06_ddec_charge
 _atom_site_hse06_ddec_spin_density
 _atom_site_hse06_ddec_sum_bond_order
 _atom_site_hse06_magmom
 _atom_site_pbe_bader_spin_density
 _atom_site_pbe_cm5_charge
 _atom_site_pbe_ddec_charge
 _atom_site_pbe_ddec_spin_density
 _atom_site_pbe_ddec_sum_bond_order
 _atom_site_pbe_magmom
Zn  Zn0  1  0.10482890  0.03834041  0.31940391  1  0  1.204495  0  1.865578  0  0  1.033772  0  2.362347  0  0  1.075277  0  2.301395  0  0  0.735699  1.003801  0  2.405465  0
Zn  Zn1  1  0.60482626  0.46166078  0.68059719  1  0  1.204443  0  1.865666  0  0  1.033725  0  2.362414  0  0  1.07524  0  2.301466  0  0  0.735675  1.003754  0  2.405535  0
Zn  Zn2  1  0.89517069  0.96166006  0.68059766  1  0  1.204437  0  1.865606  0  0  1.033676  0  2.362364  0  0  1.075185  0  2.301413  0  0  0.735657  1.003713  0  2.405485  0
Zn  Zn3  1  0.39517088  0.53833970  0.31940134  1  0  1.204494  0  1.865646  0  0  1.033742  0  2.362419  0  0  1.075245  0  2.30147  0  0  0.735662  1.003771  0  2.405538  0
P  P4  1  0.16767384  0.78862293  0.48247898  1  0  1.439286  0  4.892292  0  0  1.247474  0  5.392398  0  0  1.297348  0  5.356351  0  0  0.282268  1.21224  0  5.417382  0
P  P5  1  0.66767118  0.71137678  0.51752108  1  0  1.439306  0  4.892373  0  0  1.247496  0  5.392479  0  0  1.297394  0  5.356408  0  0  0.28227  1.212265  0  5.417467  0
P  P6  1  0.83232453  0.21137642  0.51752031  1  0  1.439307  0  4.892187  0  0  1.247523  0  5.392302  0  0  1.297422  0  5.356249  0  0  0.28222  1.21228  0  5.417289  0
P  P7  1  0.33232718  0.28862257  0.48247821  1  0  1.439309  0  4.892311  0  0  1.247498  0  5.392429  0  0  1.297375  0  5.35638  0  0  0.282265  1.212265  0  5.417411  0
H  H8  1  0.31996973  0.86120154  0.50228738  1  0  -0.14159  0  0.920818  0  0  -0.107181  0  1.002402  0  0  -0.110996  0  0.999168  0  0  0.09284  -0.105037  0  1.005759  0
H  H9  1  0.81996951  0.63879819  0.49771468  1  0  -0.14158  0  0.920806  0  0  -0.107186  0  1.002397  0  0  -0.110999  0  0.999158  0  0  0.092836  -0.105042  0  1.005752  0
H  H10  1  0.68002986  0.13879894  0.49771217  1  0  -0.141612  0  0.920833  0  0  -0.107195  0  1.002407  0  0  -0.111009  0  0.999167  0  0  0.092841  -0.105053  0  1.005766  0
H  H11  1  0.18003008  0.36120228  0.50228689  1  0  -0.141582  0  0.920805  0  0  -0.107176  0  1.002395  0  0  -0.11099  0  0.99916  0  0  0.092841  -0.105034  0  1.005753  0
H  H12  1  0.47791692  0.79954339  0.77065641  1  0  0.352105  0  0.909855  0  0  0.335351  0  0.966713  0  0  0.343289  0  0.96061  0  0  0.302618  0.329683  0  0.971208  0
H  H13  1  0.97791679  0.70045637  0.22934462  1  0  0.35216  0  0.909764  0  0  0.335389  0  0.966653  0  0  0.343331  0  0.96054  0  0  0.302624  0.329719  0  0.971153  0
H  H14  1  0.52208389  0.20045595  0.22934491  1  0  0.352202  0  0.909715  0  0  0.335435  0  0.966595  0  0  0.343375  0  0.960486  0  0  0.302636  0.329765  0  0.971094  0
H  H15  1  0.02208402  0.29954185  0.77065543  1  0  0.352095  0  0.909865  0  0  0.335329  0  0.966742  0  0  0.34327  0  0.96063  0  0  0.30261  0.32966  0  0.971238  0
H  H16  1  0.33346502  0.81638258  0.90096582  1  0  0.335548  0  0.903465  0  0  0.313509  0  0.975076  0  0  0.321018  0  0.96915  0  0  0.304121  0.308141  0  0.979373  0
H  H17  1  0.83346493  0.68361716  0.09903421  1  0  0.335561  0  0.903467  0  0  0.313508  0  0.975097  0  0  0.321019  0  0.969171  0  0  0.304115  0.30814  0  0.979395  0
H  H18  1  0.66653578  0.18361677  0.09903449  1  0  0.335581  0  0.903443  0  0  0.313535  0  0.975059  0  0  0.321044  0  0.969135  0  0  0.304119  0.308167  0  0.979358  0
H  H19  1  0.16653588  0.31638219  0.90096609  1  0  0.335559  0  0.903457  0  0  0.313497  0  0.975106  0  0  0.321008  0  0.96918  0  0  0.304096  0.308128  0  0.979406  0
H  H20  1  0.53141860  0.99869010  0.67008827  1  0  0.3469  0  0.912374  0  0  0.326583  0  0.975873  0  0  0.334516  0  0.969552  0  0  0.302199  0.320959  0  0.980606  0
H  H21  1  0.03141757  0.50131071  0.32991206  1  0  0.346837  0  0.912496  0  0  0.326575  0  0.975918  0  0  0.334479  0  0.969641  0  0  0.302197  0.32095  0  0.980646  0
H  H22  1  0.46858343  0.00131149  0.32991356  1  0  0.346859  0  0.912449  0  0  0.32659  0  0.975879  0  0  0.334496  0  0.969598  0  0  0.302204  0.320964  0  0.980611  0
H  H23  1  0.96858080  0.49868977  0.67008647  1  0  0.346847  0  0.912533  0  0  0.326578  0  0.975947  0  0  0.334489  0  0.969661  0  0  0.302194  0.320952  0  0.98068  0
H  H24  1  0.42131544  0.16746482  0.72135305  1  0  0.360331  0  0.894302  0  0  0.339586  0  0.956406  0  0  0.347763  0  0.949685  0  0  0.307249  0.333632  0  0.961611  0
H  H25  1  0.92131656  0.33253867  0.27864952  1  0  0.360311  0  0.894341  0  0  0.339582  0  0.956428  0  0  0.347759  0  0.949706  0  0  0.307262  0.333627  0  0.961635  0
H  H26  1  0.57868659  0.83253564  0.27864954  1  0  0.360311  0  0.89431  0  0  0.339568  0  0.956417  0  0  0.347744  0  0.949698  0  0  0.307246  0.333612  0  0.961623  0
H  H27  1  0.07868181  0.66746068  0.72134977  1  0  0.360273  0  0.894397  0  0  0.339537  0  0.956472  0  0  0.347709  0  0.94976  0  0  0.307252  0.333584  0  0.961679  0
C  C28  1  0.20563638  0.05995823  0.02495329  1  0  0.571338  0  4.003983  0  0  0.532028  0  4.283557  0  0  0.560354  0  4.293362  0  0  0.318378  0.512453  0  4.276442  0
C  C29  1  0.70563731  0.44004411  0.97504500  1  0  0.571323  0  4.003987  0  0  0.531985  0  4.283574  0  0  0.560308  0  4.293379  0  0  0.318383  0.512412  0  4.276461  0
C  C30  1  0.79436809  0.94004003  0.97504067  1  0  0.571373  0  4.004359  0  0  0.532071  0  4.28395  0  0  0.560393  0  4.293758  0  0  0.318386  0.512499  0  4.276836  0
C  C31  1  0.29435983  0.55996091  0.02494744  1  0  0.571322  0  4.003845  0  0  0.53201  0  4.283445  0  0  0.560341  0  4.293251  0  0  0.318363  0.512433  0  4.276329  0
C  C32  1  0.37414879  0.00910976  0.83386673  1  0  0.766045  0  3.850445  0  0  0.703733  0  4.144725  0  0  0.735261  0  4.145976  0  0  0.370036  0.681939  0  4.14317  0
C  C33  1  0.87414876  0.49089260  0.16613458  1  0  0.766054  0  3.850558  0  0  0.703697  0  4.144886  0  0  0.735213  0  4.146153  0  0  0.370015  0.681901  0  4.143332  0
C  C34  1  0.62584957  0.99089068  0.16613789  1  0  0.765925  0  3.850702  0  0  0.703721  0  4.144853  0  0  0.735249  0  4.1461  0  0  0.369941  0.681926  0  4.143299  0
C  C35  1  0.12585327  0.50910673  0.83386775  1  0  0.766076  0  3.850215  0  0  0.703625  0  4.144707  0  0  0.735149  0  4.145962  0  0  0.369992  0.68183  0  4.143155  0
N  N36  1  0.14493776  0.03196868  0.12471156  1  0  -0.669223  0  2.916418  0  0  -0.60941  0  3.230003  0  0  -0.633387  0  3.224561  0  0  -0.41606  -0.592698  0  3.23392  0
N  N37  1  0.64493995  0.46803139  0.87529029  1  0  -0.669121  0  2.916485  0  0  -0.609285  0  3.23005  0  0  -0.63326  0  3.224608  0  0  -0.416032  -0.592578  0  3.233972  0
N  N38  1  0.85505938  0.96802839  0.87529432  1  0  -0.669195  0  2.916863  0  0  -0.609333  0  3.230387  0  0  -0.633305  0  3.224944  0  0  -0.416055  -0.592627  0  3.234307  0
N  N39  1  0.35506208  0.53196905  0.12471433  1  0  -0.669292  0  2.916174  0  0  -0.609445  0  3.22974  0  0  -0.633426  0  3.224299  0  0  -0.416043  -0.592731  0  3.233656  0
N  N40  1  0.26458536  0.09914104  0.91827175  1  0  -0.579525  0  3.100542  0  0  -0.523785  0  3.363068  0  0  -0.549883  0  3.366354  0  0  -0.332879  -0.505199  0  3.360247  0
N  N41  1  0.76458777  0.40086130  0.08172958  1  0  -0.57965  0  3.100439  0  0  -0.523855  0  3.362953  0  0  -0.549945  0  3.36624  0  0  -0.332941  -0.505268  0  3.360131  0
N  N42  1  0.73541666  0.90085718  0.08172830  1  0  -0.579516  0  3.100308  0  0  -0.523868  0  3.36285  0  0  -0.54997  0  3.36614  0  0  -0.332884  -0.505281  0  3.360027  0
N  N43  1  0.23541181  0.59913807  0.91826768  1  0  -0.579418  0  3.100649  0  0  -0.523672  0  3.363269  0  0  -0.549768  0  3.366557  0  0  -0.332861  -0.505085  0  3.360447  0
N  N44  1  0.40936454  0.86999124  0.84638950  1  0  -0.712752  0  3.063461  0  0  -0.669526  0  3.293777  0  0  -0.692026  0  3.289385  0  0  -0.569129  -0.654275  0  3.297078  0
N  N45  1  0.90936564  0.63000739  0.15361128  1  0  -0.712796  0  3.063558  0  0  -0.669529  0  3.293873  0  0  -0.692026  0  3.289488  0  0  -0.569096  -0.654275  0  3.297175  0
N  N46  1  0.59063749  0.13000699  0.15361055  1  0  -0.712857  0  3.063453  0  0  -0.669636  0  3.293716  0  0  -0.692136  0  3.289323  0  0  -0.569119  -0.654384  0  3.29702  0
N  N47  1  0.09063395  0.36999198  0.84638598  1  0  -0.712698  0  3.063602  0  0  -0.669401  0  3.293962  0  0  -0.691899  0  3.289577  0  0  -0.569018  -0.654148  0  3.297263  0
N  N48  1  0.45061967  0.06438763  0.73776048  1  0  -0.694413  0  3.047507  0  0  -0.652094  0  3.281545  0  0  -0.674096  0  3.276021  0  0  -0.561391  -0.636741  0  3.285996  0
N  N49  1  0.95062082  0.43561136  0.26224310  1  0  -0.694327  0  3.047591  0  0  -0.652071  0  3.28162  0  0  -0.674048  0  3.276139  0  0  -0.561406  -0.636715  0  3.286074  0
N  N50  1  0.54938236  0.93561284  0.26224008  1  0  -0.694282  0  3.047823  0  0  -0.652035  0  3.281787  0  0  -0.674014  0  3.276304  0  0  -0.561327  -0.636681  0  3.286241  0
N  N51  1  0.04937511  0.56438800  0.73775416  1  0  -0.694422  0  3.047378  0  0  -0.65206  0  3.281413  0  0  -0.674037  0  3.275925  0  0  -0.561419  -0.63671  0  3.285873  0
O  O52  1  0.07419035  0.84632552  0.36918140  1  0  -0.861  0  2.06482  0  0  -0.756946  0  2.360133  0  0  -0.784126  0  2.333517  0  0  -0.379939  -0.736887  0  2.377881  0
O  O53  1  0.57419009  0.65367528  0.63082096  1  0  -0.860999  0  2.064864  0  0  -0.756945  0  2.360173  0  0  -0.784123  0  2.333546  0  0  -0.379907  -0.736886  0  2.37792  0
O  O54  1  0.92580802  0.15367607  0.63081942  1  0  -0.861003  0  2.064838  0  0  -0.756944  0  2.360146  0  0  -0.784117  0  2.333516  0  0  -0.379892  -0.73688  0  2.377884  0
O  O55  1  0.42580950  0.34632517  0.36918163  1  0  -0.861015  0  2.064851  0  0  -0.756959  0  2.360167  0  0  -0.784137  0  2.333549  0  0  -0.379922  -0.736904  0  2.377923  0
O  O56  1  0.08038616  0.82500114  0.62504480  1  0  -0.855394  0  2.069197  0  0  -0.752705  0  2.367529  0  0  -0.781206  0  2.342986  0  0  -0.378033  -0.732085  0  2.383814  0
O  O57  1  0.58038598  0.67499967  0.37495755  1  0  -0.855411  0  2.069312  0  0  -0.752702  0  2.36762  0  0  -0.781215  0  2.343084  0  0  -0.378039  -0.732078  0  2.383902  0
O  O58  1  0.91961342  0.17500046  0.37495601  1  0  -0.855404  0  2.069195  0  0  -0.752723  0  2.367517  0  0  -0.781234  0  2.342978  0  0  -0.378046  -0.732102  0  2.383803  0
O  O59  1  0.41961360  0.32500079  0.62504504  1  0  -0.855441  0  2.069203  0  0  -0.752735  0  2.367517  0  0  -0.781241  0  2.342976  0  0  -0.378047  -0.732114  0  2.383801  0
O  O60  1  0.19862867  0.61852450  0.43250937  1  0  -0.862135  0  2.065481  0  0  -0.760369  0  2.358039  0  0  -0.789076  0  2.335146  0  0  -0.377966  -0.739907  0  2.375424  0
O  O61  1  0.69862727  0.88147634  0.56749094  1  0  -0.862131  0  2.06545  0  0  -0.760361  0  2.358019  0  0  -0.789101  0  2.335145  0  0  -0.377963  -0.739907  0  2.375412  0
O  O62  1  0.80136481  0.38147712  0.56748739  1  0  -0.862106  0  2.065374  0  0  -0.760415  0  2.35798  0  0  -0.789174  0  2.335127  0  0  -0.37793  -0.739926  0  2.375343  0
O  O63  1  0.30137232  0.11852638  0.43250911  1  0  -0.862122  0  2.065491  0  0  -0.760383  0  2.358064  0  0  -0.789092  0  2.335172  0  0  -0.377964  -0.739923  0  2.375455  0
