# generated using pymatgen
data_Zn3H16(C12O7)2
_symmetry_space_group_name_H-M   'P 1'
_cell_length_a   9.59317956
_cell_length_b   11.75145913
_cell_length_c   18.85492011
_cell_angle_alpha   110.94555631
_cell_angle_beta   89.99963616
_cell_angle_gamma   90.00019982
_symmetry_Int_Tables_number   1
_chemical_formula_structural   Zn3H16(C12O7)2
_chemical_formula_sum   'Zn6 H32 C48 O28'
_cell_volume   1985.13016396
_cell_formula_units_Z   2
loop_
 _symmetry_equiv_pos_site_id
 _symmetry_equiv_pos_as_xyz
  1  'x, y, z'
loop_
 _atom_site_type_symbol
 _atom_site_label
 _atom_site_symmetry_multiplicity
 _atom_site_fract_x
 _atom_site_fract_y
 _atom_site_fract_z
 _atom_site_occupancy
 _atom_site_pbe_bader_charge
 _atom_site_pbe_bader_spin_density
 _atom_site_pbe_cm5_charge
 _atom_site_pbe_ddec_charge
 _atom_site_pbe_ddec_spin_density
 _atom_site_pbe_ddec_sum_bond_order
 _atom_site_pbe_magmom
Zn  Zn0  1  0.98559371  0.21096622  0.93442091  1  1.302776  0  0.691414  0.932621  0  2.291008  0
Zn  Zn1  1  0.48560341  0.78903859  0.56559102  1  1.302701  0  0.691409  0.932582  0  2.291151  0
Zn  Zn2  1  0.01440304  0.78903852  0.06558316  1  1.30272  0  0.691412  0.932615  0  2.29106  0
Zn  Zn3  1  0.51439960  0.21096795  0.43441664  1  1.302763  0  0.691417  0.932613  0  2.291106  0
Zn  Zn4  1  0.00000932  0.50000680  0.00000133  1  1.409873  0  0.702474  1.018306  0  2.210588  0
Zn  Zn5  1  0.50000202  0.50000055  0.50000083  1  1.410071  0  0.702501  1.018411  0  2.210577  0
H  H6  1  0.14437464  0.52369332  0.79424660  1  0.084366  0  0.109351  0.116555  0  0.989511  0
H  H7  1  0.64437304  0.47631198  0.70575328  1  0.08431  0  0.109404  0.116655  0  0.989437  0
H  H8  1  0.85562315  0.47631690  0.20575446  1  0.084386  0  0.109441  0.116719  0  0.98945  0
H  H9  1  0.35559661  0.52368364  0.29425087  1  0.084655  0  0.109424  0.116698  0  0.989459  0
H  H10  1  0.25436291  0.51599294  0.67143141  1  0.091952  0  0.107421  0.114241  0  0.993267  0
H  H11  1  0.75436084  0.48400977  0.82856860  1  0.091666  0  0.107456  0.114308  0  0.99322  0
H  H12  1  0.74563905  0.48401455  0.32856798  1  0.09172  0  0.107423  0.114305  0  0.993193  0
H  H13  1  0.24561610  0.51598128  0.17143611  1  0.091676  0  0.107475  0.114318  0  0.993279  0
H  H14  1  0.27475314  0.12531727  0.59805033  1  0.135502  0  0.104187  0.116557  0  1.023241  0
H  H15  1  0.77477044  0.87468093  0.90194754  1  0.135337  0  0.10418  0.116521  0  1.023295  0
H  H16  1  0.72522485  0.87468570  0.40194327  1  0.135421  0  0.104242  0.116687  0  1.023325  0
H  H17  1  0.22529928  0.12530747  0.09803908  1  0.135285  0  0.104344  0.116654  0  1.023359  0
H  H18  1  0.16081415  0.13302994  0.71914301  1  0.067132  0  0.10262  0.106362  0  1.010156  0
H  H19  1  0.66083503  0.86697993  0.78085944  1  0.067109  0  0.102509  0.106163  0  1.010137  0
H  H20  1  0.83915341  0.86697666  0.28085194  1  0.067089  0  0.102488  0.106134  0  1.010197  0
H  H21  1  0.33922530  0.13301393  0.21913000  1  0.06674  0  0.102562  0.106284  0  1.010109  0
H  H22  1  0.47526718  0.33415537  0.87398053  1  0.107652  0  0.104534  0.106191  0  1.002147  0
H  H23  1  0.97527255  0.66584765  0.62602043  1  0.107673  0  0.104551  0.106193  0  1.00224  0
H  H24  1  0.52471497  0.66582477  0.12601749  1  0.107859  0  0.104516  0.106164  0  1.001913  0
H  H25  1  0.02473150  0.33416161  0.37399261  1  0.107834  0  0.104505  0.1061  0  1.002034  0
H  H26  1  0.70987567  0.50630713  0.07871084  1  0.11159  0  0.10124  0.106952  0  1.046628  0
H  H27  1  0.20990161  0.49366948  0.42129649  1  0.111458  0  0.101233  0.106831  0  1.046616  0
H  H28  1  0.29010544  0.49367669  0.92127953  1  0.111324  0  0.101257  0.106909  0  1.046578  0
H  H29  1  0.79010139  0.50633429  0.57872116  1  0.111395  0  0.10127  0.106874  0  1.046622  0
H  H30  1  0.89491287  0.01536804  0.83338180  1  0.607972  0  0.336662  0.412937  0  0.853037  0
H  H31  1  0.39490330  0.98463947  0.66661141  1  0.608361  0  0.336697  0.413023  0  0.853085  0
H  H32  1  0.10510264  0.98463675  0.16661115  1  0.608401  0  0.336657  0.412982  0  0.853088  0
H  H33  1  0.60509449  0.01536620  0.33338916  1  0.608399  0  0.336673  0.412989  0  0.853012  0
H  H34  1  0.77875940  0.11510763  0.88234538  1  0.646908  0  0.285474  0.376664  0  0.973962  0
H  H35  1  0.27876673  0.88488785  0.61765080  1  0.646842  0  0.28547  0.376663  0  0.97398  0
H  H36  1  0.22124152  0.88488530  0.11764755  1  0.646717  0  0.285477  0.376646  0  0.973978  0
H  H37  1  0.72123210  0.11511872  0.38235315  1  0.64686  0  0.28546  0.376707  0  0.973912  0
C  C38  1  0.08964030  0.33175217  0.83817846  1  1.546164  0  0.224369  0.603458  0  4.1594  0
C  C39  1  0.58965774  0.66826033  0.66182427  1  1.545973  0  0.224317  0.603501  0  4.159327  0
C  C40  1  0.91034185  0.66825989  0.16182036  1  1.546253  0  0.224263  0.603324  0  4.15955  0
C  C41  1  0.41036403  0.33174260  0.33817515  1  1.54644  0  0.224387  0.603558  0  4.159209  0
C  C42  1  0.14823344  0.32877174  0.76407140  1  -0.073167  0  -0.015301  -0.031461  0  3.96417  0
C  C43  1  0.64825307  0.67124084  0.73593275  1  -0.073232  0  -0.015318  -0.031326  0  3.963968  0
C  C44  1  0.85173934  0.67124214  0.23592783  1  -0.073513  0  -0.015334  -0.031251  0  3.963943  0
C  C45  1  0.35176869  0.32875206  0.26406602  1  -0.073603  0  -0.015392  -0.031607  0  3.964137  0
C  C46  1  0.17260313  0.43708831  0.75061992  1  -0.002505  0  -0.079807  -0.093649  0  3.961785  0
C  C47  1  0.67261696  0.56291521  0.74938000  1  -0.001893  0  -0.079868  -0.093894  0  3.961753  0
C  C48  1  0.82738007  0.56291829  0.24937609  1  -0.001961  0  -0.079936  -0.094075  0  3.961892  0
C  C49  1  0.32739334  0.43707678  0.25061856  1  -0.002201  0  -0.079871  -0.093876  0  3.96175  0
C  C50  1  0.23326644  0.43287738  0.68262193  1  -0.031265  0  -0.07633  -0.083811  0  3.954151  0
C  C51  1  0.73327735  0.56712804  0.81738034  1  -0.031088  0  -0.076378  -0.083908  0  3.954164  0
C  C52  1  0.76671571  0.56713195  0.31737734  1  -0.030967  0  -0.076268  -0.083779  0  3.953998  0
C  C53  1  0.26672774  0.43286397  0.18261557  1  -0.031317  0  -0.076363  -0.083796  0  3.95415  0
C  C54  1  0.27140720  0.32041657  0.62805166  1  0.02787  0  -0.010782  -0.02306  0  3.953916  0
C  C55  1  0.77141786  0.67958435  0.87194789  1  0.027315  0  -0.010737  -0.022902  0  3.953894  0
C  C56  1  0.72857808  0.67959003  0.37194382  1  0.027696  0  -0.01073  -0.022803  0  3.953762  0
C  C57  1  0.22860807  0.32040584  0.12804549  1  0.027783  0  -0.010822  -0.023048  0  3.954077  0
C  C58  1  0.24442107  0.21199470  0.64078315  1  -0.113806  0  -0.083701  -0.096372  0  3.971529  0
C  C59  1  0.74444483  0.78800707  0.85922039  1  -0.113564  0  -0.083812  -0.096406  0  3.971382  0
C  C60  1  0.75554858  0.78801463  0.35921294  1  -0.113382  0  -0.083892  -0.096819  0  3.971776  0
C  C61  1  0.25561343  0.21198223  0.14076696  1  -0.112744  0  -0.083846  -0.096489  0  3.971596  0
C  C62  1  0.18252668  0.21628649  0.70824240  1  0.034542  0  -0.086722  -0.099997  0  3.986585  0
C  C63  1  0.68255544  0.78372067  0.79176043  1  0.034838  0  -0.086501  -0.099742  0  3.986313  0
C  C64  1  0.81743775  0.78372375  0.29175495  1  0.034175  0  -0.08652  -0.099599  0  3.986389  0
C  C65  1  0.31750281  0.21627138  0.20822595  1  0.034608  0  -0.086582  -0.099733  0  3.986407  0
C  C66  1  0.34759301  0.31508579  0.55798486  1  1.545115  0  0.226236  0.605542  0  4.147671  0
C  C67  1  0.84759343  0.68491796  0.94201773  1  1.545249  0  0.226174  0.605522  0  4.147823  0
C  C68  1  0.65240478  0.68492626  0.44201661  1  1.544861  0  0.226145  0.605452  0  4.147656  0
C  C69  1  0.15242209  0.31506858  0.05797749  1  1.544366  0  0.226162  0.60542  0  4.147931  0
C  C70  1  0.71193901  0.31548903  0.94475232  1  1.519936  0  0.226956  0.605935  0  4.116426  0
C  C71  1  0.21195364  0.68449901  0.55525408  1  1.519252  0  0.226919  0.605633  0  4.116915  0
C  C72  1  0.28804523  0.68448746  0.05524754  1  1.519282  0  0.227078  0.605925  0  4.116259  0
C  C73  1  0.78804415  0.31551573  0.44475648  1  1.519781  0  0.22709  0.605967  0  4.116431  0
C  C74  1  0.60374966  0.41181647  0.97343719  1  -0.01788  0  -0.012346  -0.026711  0  3.966833  0
C  C75  1  0.10376739  0.58817051  0.52656773  1  -0.017076  0  -0.012405  -0.026597  0  3.967034  0
C  C76  1  0.39624188  0.58815913  0.02655664  1  -0.017011  0  -0.012499  -0.027001  0  3.966738  0
C  C77  1  0.89623874  0.41184147  0.47344805  1  -0.017219  0  -0.012514  -0.026914  0  3.96686  0
C  C78  1  0.48517402  0.40729153  0.92900433  1  -0.034276  0  -0.080457  -0.090874  0  3.963351  0
C  C79  1  0.98518083  0.59270877  0.57099758  1  -0.034387  0  -0.080388  -0.090771  0  3.963391  0
C  C80  1  0.51480814  0.59268314  0.07099353  1  -0.035403  0  -0.080466  -0.090723  0  3.963217  0
C  C81  1  0.01482217  0.40729867  0.42901347  1  -0.034369  0  -0.0805  -0.090779  0  3.963208  0
C  C82  1  0.61780214  0.50447710  0.04469692  1  -0.035826  0  -0.083051  -0.082931  0  3.954026  0
C  C83  1  0.11781618  0.49550668  0.45530966  1  -0.037063  0  -0.083041  -0.082833  0  3.95411  0
C  C84  1  0.38218002  0.49549666  0.95529914  1  -0.03708  0  -0.082954  -0.082667  0  3.953651  0
C  C85  1  0.88218786  0.50450074  0.54470457  1  -0.036941  0  -0.082927  -0.082673  0  3.953765  0
O  O86  1  0.06559706  0.43474882  0.88898100  1  -1.180005  0  -0.303032  -0.556909  0  2.389535  0
O  O87  1  0.56560118  0.56527095  0.61102132  1  -1.179944  0  -0.302931  -0.556942  0  2.389652  0
O  O88  1  0.93439864  0.56526872  0.11101640  1  -1.179999  0  -0.302917  -0.556875  0  2.389812  0
O  O89  1  0.43439661  0.43473379  0.38898222  1  -1.180085  0  -0.303007  -0.556997  0  2.389662  0
O  O90  1  0.06965086  0.22777020  0.84464943  1  -1.166797  0  -0.329519  -0.574641  0  2.349917  0
O  O91  1  0.56967608  0.77224137  0.65535263  1  -1.167091  0  -0.329552  -0.57469  0  2.350147  0
O  O92  1  0.93032609  0.77224094  0.15535078  1  -1.167104  0  -0.32951  -0.574656  0  2.350153  0
O  O93  1  0.43033839  0.22775975  0.34464533  1  -1.167083  0  -0.329556  -0.574669  0  2.35001  0
O  O94  1  0.35524874  0.40984051  0.54109975  1  -1.177173  0  -0.306537  -0.568182  0  2.399938  0
O  O95  1  0.85523502  0.59016779  0.95890914  1  -1.177035  0  -0.306464  -0.568217  0  2.399844  0
O  O96  1  0.64475217  0.59017334  0.45890743  1  -1.176864  0  -0.306467  -0.568223  0  2.39983  0
O  O97  1  0.14475443  0.40982419  0.04109366  1  -1.176844  0  -0.306486  -0.568182  0  2.39995  0
O  O98  1  0.40314502  0.21143818  0.51930417  1  -1.14513  0  -0.320533  -0.540566  0  2.299266  0
O  O99  1  0.90315995  0.78856658  0.98069529  1  -1.145171  0  -0.320562  -0.540587  0  2.299429  0
O  O100  1  0.59685694  0.78857658  0.48070268  1  -1.145069  0  -0.320516  -0.540536  0  2.299455  0
O  O101  1  0.09685765  0.21141814  0.01929899  1  -1.145053  0  -0.320529  -0.540529  0  2.299451  0
O  O102  1  0.83728522  0.33937546  0.97320473  1  -1.178067  0  -0.320081  -0.591933  0  2.394066  0
O  O103  1  0.33730012  0.66061915  0.52680009  1  -1.178055  0  -0.32007  -0.591832  0  2.394422  0
O  O104  1  0.16269485  0.66061746  0.02679192  1  -1.177993  0  -0.320159  -0.591937  0  2.394455  0
O  O105  1  0.66269559  0.33939196  0.47320806  1  -1.178105  0  -0.320099  -0.591904  0  2.394576  0
O  O106  1  0.67713210  0.21455022  0.89532213  1  -1.16121  0  -0.310616  -0.529091  0  2.14476  0
O  O107  1  0.17714025  0.78544143  0.60468147  1  -1.160891  0  -0.310634  -0.529019  0  2.14481  0
O  O108  1  0.32286256  0.78543360  0.10466876  1  -1.160658  0  -0.310655  -0.529058  0  2.144437  0
O  O109  1  0.82285337  0.21456872  0.39533495  1  -1.161023  0  -0.310734  -0.529185  0  2.144447  0
O  O110  1  0.86551571  0.06198135  0.88503195  1  -1.216411  0  -0.55286  -0.722994  0  2.090452  0
O  O111  1  0.36551599  0.93801608  0.61496227  1  -1.21681  0  -0.552867  -0.723064  0  2.090593  0
O  O112  1  0.13449251  0.93801523  0.11496074  1  -1.216774  0  -0.552826  -0.72301  0  2.090582  0
O  O113  1  0.63448493  0.06198776  0.38503895  1  -1.21682  0  -0.552842  -0.723067  0  2.090509  0
