# generated using pymatgen
data_CoH5C5(NO)2
_symmetry_space_group_name_H-M   'P 1'
_cell_length_a   8.55576674
_cell_length_b   8.55578630
_cell_length_c   10.39476355
_cell_angle_alpha   107.78607449
_cell_angle_beta   107.78625801
_cell_angle_gamma   104.91829416
_symmetry_Int_Tables_number   1
_chemical_formula_structural   CoH5C5(NO)2
_chemical_formula_sum   'Co4 H20 C20 N8 O8'
_cell_volume   636.19679181
_cell_formula_units_Z   4
loop_
 _symmetry_equiv_pos_site_id
 _symmetry_equiv_pos_as_xyz
  1  'x, y, z'
loop_
 _atom_site_type_symbol
 _atom_site_label
 _atom_site_symmetry_multiplicity
 _atom_site_fract_x
 _atom_site_fract_y
 _atom_site_fract_z
 _atom_site_occupancy
 _atom_site_hle17_ddec_charge
 _atom_site_hle17_ddec_spin_density
 _atom_site_hle17_ddec_sum_bond_order
 _atom_site_hle17_magmom
 _atom_site_hse06_10hf_ddec_charge
 _atom_site_hse06_10hf_ddec_spin_density
 _atom_site_hse06_10hf_ddec_sum_bond_order
 _atom_site_hse06_10hf_magmom
 _atom_site_hse06_ddec_charge
 _atom_site_hse06_ddec_spin_density
 _atom_site_hse06_ddec_sum_bond_order
 _atom_site_hse06_magmom
 _atom_site_pbe_cm5_charge
 _atom_site_pbe_ddec_charge
 _atom_site_pbe_ddec_spin_density
 _atom_site_pbe_ddec_sum_bond_order
 _atom_site_pbe_magmom
Co  Co0  1  0.03626992  0.06919103  0.70507649  1  0.952524  2.805969  2.024467  2.536  0.900951  2.823436  2.463715  2.594  0.990751  2.868106  2.380504  2.681  0.68688  0.82916  2.780199  2.527936  2.514
Co  Co1  1  0.36422818  0.33132052  0.29474290  1  0.952562  2.803702  2.024757  2.535  0.901713  2.821387  2.463353  2.593  0.99131  2.86649  2.380613  2.681  0.686942  0.829472  2.778767  2.527924  2.514
Co  Co2  1  0.58131866  0.11422321  0.79474283  1  0.952455  2.803644  2.024868  2.535  0.901732  2.821383  2.463457  2.593  0.991323  2.866485  2.380704  2.681  0.686938  0.8295  2.77876  2.52802  2.514
Co  Co3  1  0.31918776  0.78626987  0.20507633  1  0.952525  2.805996  2.024496  2.536  0.90089  2.823439  2.46376  2.594  0.990706  2.86811  2.380527  2.681  0.686849  0.829098  2.780191  2.527961  2.514
H  H4  1  0.98609728  0.71315188  0.48595886  1  0.102545  0.000445  0.947753  0.0  0.11061  0.000817  1.0195  0.001  0.112649  0.000566  1.018791  0.0  0.101683  0.109212  0.001071  1.020028  0.001
H  H5  1  0.22755446  0.50038354  0.51440610  1  0.102611  0.000432  0.947895  0.0  0.111526  0.000799  1.018818  0.001  0.113478  0.000553  1.018142  0.0  0.101876  0.110039  0.001062  1.019571  0.001
H  H6  1  0.75037845  0.97755316  0.01440060  1  0.102662  0.000432  0.947886  0.0  0.111586  0.000799  1.018801  0.001  0.113532  0.000553  1.018129  0.0  0.101918  0.110098  0.001063  1.019553  0.001
H  H7  1  0.96315099  0.73609977  0.98595585  1  0.102514  0.000444  0.947785  0.0  0.110597  0.000817  1.019518  0.001  0.112635  0.000566  1.018812  0.0  0.101688  0.109199  0.001071  1.020048  0.001
H  H8  1  0.05294549  0.63756783  0.62662261  1  0.11935  -0.000471  0.919444  0.0  0.134962  1.7e-05  0.976384  0.0  0.137181  -2.5e-05  0.97651  0.0  0.110338  0.133141  2.2e-05  0.976644  0.0
H  H9  1  0.01124306  0.42644373  0.37383773  1  0.119605  -0.000481  0.919333  0.0  0.135244  4e-06  0.976668  0.0  0.137446  -3.5e-05  0.976684  0.0  0.110577  0.133494  2.3e-05  0.97689  0.0
H  H10  1  0.67644075  0.76124453  0.87383546  1  0.119659  -0.000482  0.919287  0.0  0.135297  4e-06  0.976641  0.0  0.137498  -3.5e-05  0.976657  0.0  0.110576  0.133548  2.3e-05  0.976861  0.0
H  H11  1  0.88756383  0.80294345  0.12662039  1  0.119397  -0.00047  0.919431  0.0  0.134996  1.7e-05  0.976388  0.0  0.137216  -2.5e-05  0.976513  0.0  0.110351  0.133174  2.2e-05  0.976649  0.0
H  H12  1  0.61070487  0.83445321  0.51431705  1  0.080539  -0.000591  0.954725  0.0  0.087797  -8.8e-05  1.022894  0.001  0.089123  -0.000197  1.020857  0.0  0.125894  0.086808  3.6e-05  1.024565  0.001
H  H13  1  0.32052576  0.09627881  0.48529354  1  0.080902  -0.000563  0.95391  0.0  0.08778  -8.1e-05  1.022266  0.001  0.089102  -0.000192  1.020229  0.0  0.125902  0.086833  3.8e-05  1.023802  0.001
H  H14  1  0.34627888  0.07053077  0.98529433  1  0.080958  -0.000563  0.953904  0.0  0.087802  -8.1e-05  1.022275  0.001  0.089123  -0.000192  1.02024  0.0  0.125915  0.086857  3.8e-05  1.023813  0.001
H  H15  1  0.08444808  0.36070473  0.01432065  1  0.080538  -0.00059  0.954661  0.0  0.087796  -8.8e-05  1.022831  0.001  0.089122  -0.000197  1.020796  0.0  0.125913  0.086809  3.6e-05  1.024502  0.001
H  H16  1  0.66008918  0.03437405  0.19878382  1  0.092902  0.000234  0.972987  0.001  0.103214  0.000611  1.033672  0.001  0.104535  0.000423  1.033716  0.001  0.110468  0.102192  0.000798  1.033986  0.001
H  H17  1  0.83550144  0.46159945  0.80122216  1  0.092766  0.00024  0.973008  0.001  0.103741  0.000632  1.033105  0.001  0.105064  0.000439  1.033138  0.001  0.110867  0.102881  0.000799  1.033179  0.001
H  H18  1  0.71160935  0.58550063  0.30122288  1  0.092743  0.000241  0.972926  0.001  0.103745  0.000632  1.032997  0.001  0.105054  0.000439  1.033045  0.001  0.110872  0.102885  0.000799  1.033069  0.001
H  H19  1  0.28437838  0.41008986  0.69879093  1  0.092905  0.000235  0.97292  0.001  0.103198  0.000611  1.033628  0.001  0.1045  0.000423  1.033694  0.001  0.110466  0.102177  0.000798  1.033939  0.001
H  H20  1  0.99517352  0.14290742  0.42000960  1  0.090917  0.000301  0.968395  0.001  0.100858  0.000675  1.031044  0.001  0.102102  0.000466  1.031128  0.001  0.109912  0.100049  0.000898  1.031051  0.001
H  H21  1  0.72279139  0.57564820  0.58008109  1  0.091096  0.000309  0.969656  0.001  0.10146  0.000707  1.031803  0.001  0.102766  0.000491  1.031846  0.001  0.11001  0.100592  0.000895  1.031932  0.001
H  H22  1  0.82565755  0.47278465  0.08008042  1  0.091122  0.000309  0.969694  0.001  0.101496  0.000707  1.031811  0.001  0.102801  0.000491  1.031859  0.001  0.110015  0.100632  0.000895  1.03193  0.001
H  H23  1  0.39290691  0.74517203  0.92001474  1  0.090944  0.0003  0.968414  0.001  0.100826  0.000675  1.031129  0.001  0.102069  0.000466  1.031216  0.001  0.109915  0.10002  0.000898  1.031133  0.001
C  C24  1  0.25413659  0.85860374  0.64364245  1  0.702706  -0.012777  3.787229  -0.01  0.663635  0.00376  4.08139  0.003  0.702592  0.002914  4.076195  0.003  0.220691  0.634496  0.003719  4.084134  0.002
C  C25  1  0.21493611  0.61049737  0.35646297  1  0.70337  -0.012923  3.786784  -0.01  0.664303  0.003676  4.081455  0.003  0.7032  0.002869  4.076177  0.003  0.220558  0.635166  0.003708  4.084347  0.002
C  C26  1  0.86049564  0.96493715  0.85646281  1  0.703382  -0.01293  3.786779  -0.01  0.664324  0.003676  4.081461  0.003  0.703221  0.002872  4.076182  0.003  0.220548  0.635188  0.003707  4.084355  0.002
C  C27  1  0.10860197  0.00413790  0.14363993  1  0.702478  -0.012779  3.787487  -0.01  0.663397  0.003761  4.08167  0.003  0.702355  0.002915  4.076477  0.003  0.220611  0.634243  0.003719  4.084429  0.002
C  C28  1  0.09477777  0.68519662  0.55055554  1  -0.249544  0.002666  3.700576  0.004  -0.288708  0.002521  3.947046  0.003  -0.294548  0.001533  3.954385  0.002  -0.159205  -0.2845  0.003612  3.942584  0.004
C  C29  1  0.13489254  0.54435163  0.44979111  1  -0.249759  0.002679  3.699747  0.004  -0.290789  0.002547  3.947842  0.003  -0.296225  0.00155  3.95477  0.002  -0.159888  -0.286702  0.003609  3.943588  0.004
C  C30  1  0.79434814  0.88489374  0.94978864  1  -0.24988  0.002682  3.699678  0.004  -0.290948  0.002547  3.947834  0.003  -0.29638  0.001549  3.954756  0.002  -0.159906  -0.286851  0.003609  3.943579  0.004
C  C31  1  0.93519294  0.84477732  0.05055283  1  -0.24947  0.002665  3.700504  0.004  -0.28862  0.002521  3.946976  0.003  -0.294461  0.001532  3.954316  0.002  -0.159203  -0.284411  0.003612  3.942524  0.004
C  C32  1  0.67054341  0.90100003  0.45745569  1  0.204615  -0.001961  3.73505  0.001  0.156959  0.006778  4.019852  0.01  0.173175  0.005377  4.03843  0.008  0.118434  0.145149  0.007737  4.006568  0.011
C  C33  1  0.44380673  0.21314784  0.54228000  1  0.2034  -0.003995  3.736391  0.0  0.156382  0.006775  4.021086  0.01  0.17275  0.005517  4.039491  0.009  0.118495  0.144774  0.007744  4.007485  0.011
C  C34  1  0.46314964  0.19380874  0.04228051  1  0.203242  -0.003993  3.736374  0.0  0.15626  0.006776  4.021089  0.01  0.172626  0.005518  4.039496  0.009  0.118395  0.144651  0.007745  4.007492  0.011
C  C35  1  0.15099431  0.42054315  0.95745908  1  0.204588  -0.00198  3.73511  0.001  0.156944  0.006777  4.019928  0.01  0.173162  0.005378  4.038506  0.008  0.118423  0.145138  0.007737  4.006645  0.011
C  C36  1  0.69985964  0.00543036  0.29560136  1  -0.012887  0.004602  3.75668  0.006  -0.036755  0.004991  4.012741  0.007  -0.034234  0.003319  4.036277  0.005  -0.014954  -0.038365  0.007082  3.996229  0.009
C  C37  1  0.70988790  0.40447921  0.70431393  1  -0.011511  0.004756  3.751358  0.006  -0.036  0.00503  4.007918  0.007  -0.033441  0.003334  4.031456  0.005  -0.015499  -0.037747  0.007096  3.991256  0.009
C  C38  1  0.65448474  0.45988318  0.20431073  1  -0.011436  0.004745  3.75136  0.006  -0.03597  0.00503  4.007935  0.007  -0.033397  0.003333  4.031484  0.005  -0.01544  -0.037717  0.007095  3.991267  0.009
C  C39  1  0.25543206  0.44986028  0.79560773  1  -0.012826  0.004589  3.756553  0.006  -0.036657  0.00499  4.012591  0.007  -0.03412  0.003319  4.036132  0.005  -0.014888  -0.038264  0.007081  3.996079  0.009
C  C40  1  0.86612739  0.06130659  0.40666329  1  -0.024602  0.004705  3.770908  0.006  -0.048056  0.005218  4.028438  0.007  -0.046023  0.003508  4.051902  0.005  -0.0208  -0.049539  0.007304  4.011988  0.009
C  C41  1  0.65461932  0.45974760  0.59327167  1  -0.026162  0.004883  3.772096  0.006  -0.050418  0.005211  4.030401  0.007  -0.04849  0.003463  4.053905  0.005  -0.021202  -0.051769  0.007308  4.013904  0.009
C  C42  1  0.70975450  0.40461909  0.09327388  1  -0.026204  0.004896  3.772255  0.006  -0.050451  0.005211  4.030563  0.007  -0.048524  0.003463  4.054061  0.005  -0.021222  -0.051803  0.007308  4.014071  0.009
C  C43  1  0.31130805  0.61612653  0.90666816  1  -0.024597  0.004716  3.771033  0.006  -0.048002  0.005219  4.028548  0.007  -0.04597  0.003509  4.052011  0.005  -0.020791  -0.049486  0.007305  4.012101  0.009
N  N44  1  0.84654698  0.99565782  0.50972178  1  -0.427476  0.049285  3.387331  0.073  -0.380907  0.034729  3.710836  0.04  -0.415172  0.026032  3.727246  0.028  -0.389486  -0.355005  0.042538  3.699321  0.051
N  N45  1  0.48609027  0.33700786  0.49011171  1  -0.425819  0.050132  3.388682  0.074  -0.379723  0.034882  3.712449  0.04  -0.414025  0.026043  3.728933  0.028  -0.38915  -0.353718  0.042611  3.700699  0.051
N  N46  1  0.58701186  0.23608912  0.99011202  1  -0.425749  0.050131  3.388682  0.074  -0.379692  0.034884  3.712481  0.04  -0.413989  0.026045  3.728964  0.028  -0.389076  -0.35369  0.042612  3.70074  0.051
N  N47  1  0.24565238  0.59654521  0.00972386  1  -0.427517  0.049289  3.387533  0.073  -0.38094  0.03473  3.711013  0.04  -0.415209  0.026032  3.727422  0.028  -0.389512  -0.355037  0.042538  3.699506  0.051
N  N48  1  0.57671629  0.90266368  0.32781262  1  -0.40256  0.051762  3.354277  0.078  -0.356076  0.036012  3.672873  0.044  -0.390534  0.027036  3.690792  0.032  -0.382504  -0.329701  0.04415  3.659487  0.055
N  N49  1  0.57501824  0.24894599  0.67194952  1  -0.402881  0.052556  3.353999  0.079  -0.356899  0.036119  3.673132  0.044  -0.39142  0.027002  3.691029  0.031  -0.382534  -0.330471  0.044178  3.659906  0.055
N  N50  1  0.49895020  0.32502330  0.17195034  1  -0.402913  0.052554  3.353869  0.079  -0.356886  0.036119  3.672958  0.044  -0.391409  0.027001  3.690854  0.031  -0.382588  -0.33046  0.044177  3.659738  0.055
N  N51  1  0.15266361  0.32671733  0.82781687  1  -0.402579  0.051772  3.35435  0.078  -0.356134  0.036013  3.672984  0.044  -0.39059  0.027037  3.690898  0.032  -0.382532  -0.329758  0.044151  3.659599  0.055
O  O52  1  0.23625337  0.00713917  0.68666336  1  -0.636183  0.046802  2.159563  0.08  -0.600101  0.043267  2.4597  0.064  -0.642919  0.033826  2.443623  0.049  -0.30903  -0.566379  0.052898  2.47043  0.078
O  O53  1  0.32043829  0.54962694  0.31335902  1  -0.636902  0.046765  2.160122  0.08  -0.600267  0.043195  2.459858  0.064  -0.643087  0.033773  2.443775  0.049  -0.309107  -0.566661  0.052964  2.471032  0.078
O  O54  1  0.79962941  0.07044113  0.81335839  1  -0.636941  0.046766  2.160208  0.08  -0.600335  0.043196  2.459976  0.064  -0.643152  0.033774  2.443891  0.049  -0.309132  -0.566728  0.052964  2.471151  0.078
O  O55  1  0.25713690  0.98625436  0.18666344  1  -0.636161  0.046801  2.159588  0.08  -0.600076  0.043267  2.459739  0.064  -0.642896  0.033825  2.443657  0.049  -0.309055  -0.566346  0.052898  2.470473  0.078
O  O56  1  0.41101573  0.85829552  0.67991691  1  -0.592817  0.050241  1.998207  0.087  -0.548127  0.038153  2.255226  0.061  -0.588421  0.027883  2.244109  0.045  -0.30812  -0.516307  0.048598  2.261849  0.076
O  O57  1  0.17818405  0.73093010  0.32007163  1  -0.593232  0.050315  1.999823  0.088  -0.548256  0.038218  2.256897  0.061  -0.588632  0.027935  2.245842  0.045  -0.308038  -0.516558  0.048544  2.263677  0.076
O  O58  1  0.98093188  0.92818499  0.82007152  1  -0.593234  0.05032  1.999747  0.088  -0.548267  0.038219  2.256813  0.061  -0.588637  0.027936  2.245751  0.045  -0.308029  -0.516567  0.048545  2.263595  0.076
O  O59  1  0.10829800  0.16101859  0.17991567  1  -0.592684  0.050239  1.998363  0.087  -0.547961  0.038151  2.255357  0.061  -0.588262  0.027883  2.244252  0.045  -0.30803  -0.516134  0.048597  2.261982  0.076
