# generated using pymatgen
data_TbH11(C8O5)2
_symmetry_space_group_name_H-M   'P 1'
_cell_length_a   8.66161461
_cell_length_b   10.22382964
_cell_length_c   9.61826786
_cell_angle_alpha   69.34824023
_cell_angle_beta   77.43730063
_cell_angle_gamma   78.37179891
_symmetry_Int_Tables_number   1
_chemical_formula_structural   TbH11(C8O5)2
_chemical_formula_sum   'Tb2 H22 C32 O20'
_cell_volume   770.62869328
_cell_formula_units_Z   2
loop_
 _symmetry_equiv_pos_site_id
 _symmetry_equiv_pos_as_xyz
  1  'x, y, z'
loop_
 _atom_site_type_symbol
 _atom_site_label
 _atom_site_symmetry_multiplicity
 _atom_site_fract_x
 _atom_site_fract_y
 _atom_site_fract_z
 _atom_site_occupancy
 _atom_site_hle17_bader_spin_density
 _atom_site_hle17_ddec_charge
 _atom_site_hle17_ddec_spin_density
 _atom_site_hle17_ddec_sum_bond_order
 _atom_site_hle17_magmom
 _atom_site_hse06_10hf_bader_spin_density
 _atom_site_hse06_10hf_ddec_charge
 _atom_site_hse06_10hf_ddec_spin_density
 _atom_site_hse06_10hf_ddec_sum_bond_order
 _atom_site_hse06_10hf_magmom
 _atom_site_hse06_bader_spin_density
 _atom_site_hse06_ddec_charge
 _atom_site_hse06_ddec_spin_density
 _atom_site_hse06_ddec_sum_bond_order
 _atom_site_hse06_magmom
 _atom_site_pbe_bader_spin_density
 _atom_site_pbe_cm5_charge
 _atom_site_pbe_ddec_charge
 _atom_site_pbe_ddec_spin_density
 _atom_site_pbe_ddec_sum_bond_order
 _atom_site_pbe_magmom
Tb  Tb0  1  0.82809396  0.91448047  0.94831238  1  0  2.272231  0  1.640579  0  0  2.127713  0  2.108407  0  0  2.246878  0  1.932184  0  0  1.507988  2.091333  0  2.142575  0
Tb  Tb1  1  0.17190850  0.08551627  0.05169016  1  0  2.272212  0  1.640589  0  0  2.127691  0  2.108391  0  0  2.246836  0  1.932189  0  0  1.507966  2.091305  0  2.142542  0
H  H2  1  0.52698239  0.13895135  0.64136128  1  0  0.41009  0  0.833736  0  0  0.38757  0  0.897644  0  0  0.399599  0  0.883961  0  0  0.320918  0.379255  0  0.906938  0
H  H3  1  0.47302900  0.86105275  0.35861778  1  0  0.410275  0  0.8335  0  0  0.38767  0  0.89754  0  0  0.399699  0  0.883855  0  0  0.320968  0.379357  0  0.906828  0
H  H4  1  0.54518207  0.11891956  0.85371400  1  0  0.449587  0  0.841148  0  0  0.420104  0  0.904639  0  0  0.431125  0  0.888744  0  0  0.313279  0.412125  0  0.916519  0
H  H5  1  0.45482262  0.88108349  0.14627524  1  0  0.449539  0  0.841228  0  0  0.420052  0  0.904724  0  0  0.431074  0  0.888828  0  0  0.313246  0.412072  0  0.916605  0
H  H6  1  0.50320840  0.97603608  0.85825902  1  0  0.433291  0  0.873974  0  0  0.400598  0  0.942047  0  0  0.411827  0  0.926141  0  0  0.304228  0.392445  0  0.954039  0
H  H7  1  0.49679756  0.02396699  0.14173306  1  0  0.433176  0  0.874133  0  0  0.400488  0  0.942206  0  0  0.411717  0  0.926298  0  0  0.304155  0.39233  0  0.954204  0
H  H8  1  0.91072550  0.77722968  0.70744525  1  0  0.433488  0  0.847058  0  0  0.407035  0  0.914248  0  0  0.41381  0  0.90521  0  0  0.316009  0.402084  0  0.921174  0
H  H9  1  0.08927190  0.22276806  0.29255176  1  0  0.4335  0  0.847041  0  0  0.407031  0  0.914256  0  0  0.413805  0  0.905219  0  0  0.316025  0.402079  0  0.921185  0
H  H10  1  0.82541000  0.92508624  0.61876050  1  0  0.460766  0  0.791603  0  0  0.43606  0  0.853872  0  0  0.445649  0  0.839856  0  0  0.330594  0.429456  0  0.863717  0
H  H11  1  0.17459151  0.07491684  0.38124293  1  0  0.460735  0  0.791611  0  0  0.436031  0  0.853898  0  0  0.445616  0  0.839888  0  0  0.330574  0.429426  0  0.863745  0
H  H12  1  0.84847372  0.40570287  0.05860652  1  0  0.123249  0  0.949903  0  0  0.129668  0  1.01727  0  0  0.134325  0  1.012446  0  0  0.115926  0.126516  0  1.020344  0
H  H13  1  0.15153530  0.59429926  0.94140501  1  0  0.123172  0  0.950115  0  0  0.129585  0  1.017488  0  0  0.134238  0  1.012668  0  0  0.1159  0.126433  0  1.02056  0
H  H14  1  0.44937153  0.17379725  0.26486871  1  0  0.103363  0  0.959949  0  0  0.111312  0  1.029105  0  0  0.114809  0  1.026171  0  0  0.110224  0.108938  0  1.031011  0
H  H15  1  0.55064489  0.82619541  0.73514276  1  0  0.103353  0  0.959984  0  0  0.111241  0  1.029235  0  0  0.114733  0  1.026302  0  0  0.110254  0.108875  0  1.031135  0
H  H16  1  0.39785286  0.61482204  0.21825333  1  0  0.112705  0  0.931386  0  0  0.123158  0  0.992452  0  0  0.127039  0  0.989232  0  0  0.110981  0.120394  0  0.994569  0
H  H17  1  0.60212446  0.38518601  0.78172017  1  0  0.112609  0  0.931488  0  0  0.123021  0  0.992626  0  0  0.126914  0  0.989392  0  0  0.110903  0.120259  0  0.994735  0
H  H18  1  0.80241478  0.34425075  0.54829827  1  0  0.110847  0  0.92858  0  0  0.123356  0  0.982827  0  0  0.12683  0  0.980652  0  0  0.110495  0.120962  0  0.984229  0
H  H19  1  0.19757961  0.65575337  0.45171151  1  0  0.110895  0  0.928566  0  0  0.123396  0  0.982812  0  0  0.126872  0  0.980632  0  0  0.110512  0.120995  0  0.984225  0
H  H20  1  0.85660390  0.52297854  0.29296700  1  0  0.104975  0  0.955311  0  0  0.115193  0  1.013633  0  0  0.117696  0  1.01313  0  0  0.107834  0.113455  0  1.013899  0
H  H21  1  0.14339221  0.47702243  0.70704466  1  0  0.104959  0  0.955331  0  0  0.1152  0  1.013623  0  0  0.117703  0  1.013118  0  0  0.107829  0.113456  0  1.013894  0
H  H22  1  0.13324195  0.54925775  0.16627182  1  0  0.106463  0  0.957048  0  0  0.117116  0  1.018407  0  0  0.11991  0  1.017023  0  0  0.108675  0.115026  0  1.019733  0
H  H23  1  0.86674901  0.45073680  0.83373301  1  0  0.106487  0  0.957035  0  0  0.117133  0  1.018398  0  0  0.119932  0  1.017007  0  0  0.108685  0.115034  0  1.019749  0
C  C24  1  0.69690493  0.66016011  0.06580995  1  0  0.647838  0  3.917777  0  0  0.600486  0  4.209657  0  0  0.633439  0  4.209624  0  0  0.198872  0.577405  0  4.214251  0
C  C25  1  0.30308759  0.33983865  0.93418876  1  0  0.647834  0  3.91789  0  0  0.600494  0  4.209787  0  0  0.633447  0  4.20975  0  0  0.198856  0.577411  0  4.214379  0
C  C26  1  0.62874086  0.52431859  0.13008610  1  0  -0.064355  0  3.763358  0  0  -0.038826  0  4.000901  0  0  -0.048252  0  4.024153  0  0  -0.015392  -0.03269  0  3.984836  0
C  C27  1  0.37125326  0.47568439  0.86990754  1  0  -0.064502  0  3.763448  0  0  -0.038991  0  4.001045  0  0  -0.048425  0  4.024312  0  0  -0.015355  -0.032852  0  3.984977  0
C  C28  1  0.72382135  0.40179236  0.11086106  1  0  -0.063934  0  3.668207  0  0  -0.102209  0  3.916964  0  0  -0.098761  0  3.933903  0  0  -0.066877  -0.104412  0  3.905112  0
C  C29  1  0.27617569  0.59820857  0.88914105  1  0  -0.06387  0  3.668157  0  0  -0.102201  0  3.916925  0  0  -0.09875  0  3.933863  0  0  -0.066871  -0.104401  0  3.905074  0
C  C30  1  0.65704251  0.27716980  0.15340392  1  0  -0.058696  0  3.725095  0  0  -0.031888  0  3.957796  0  0  -0.040361  0  3.977622  0  0  -0.009429  -0.025985  0  3.943199  0
C  C31  1  0.34296478  0.72283439  0.84659991  1  0  -0.058673  0  3.72506  0  0  -0.031714  0  3.957569  0  0  -0.040196  0  3.97739  0  0  -0.009435  -0.025818  0  3.942991  0
C  C32  1  0.75137066  0.15585919  0.10638105  1  0  0.747991  0  3.805617  0  0  0.69779  0  4.092837  0  0  0.734533  0  4.085207  0  0  0.2468  0.672928  0  4.100504  0
C  C33  1  0.24863834  0.84413444  0.89362542  1  0  0.748082  0  3.80554  0  0  0.697805  0  4.092768  0  0  0.734569  0  4.085104  0  0  0.246822  0.672929  0  4.100469  0
C  C34  1  0.49944227  0.27221509  0.22818525  1  0  -0.073181  0  3.654234  0  0  -0.113318  0  3.907309  0  0  -0.110458  0  3.924427  0  0  -0.070671  -0.114328  0  3.894745  0
C  C35  1  0.50056443  0.72778486  0.77181618  1  0  -0.073179  0  3.654404  0  0  -0.113329  0  3.90749  0  0  -0.110462  0  3.924604  0  0  -0.0707  -0.114345  0  3.89493  0
C  C36  1  0.40636891  0.39137473  0.25780398  1  0  0.046714  0  3.77379  0  0  0.065823  0  4.013522  0  0  0.062328  0  4.038531  0  0  -0.003982  0.067863  0  3.996247  0
C  C37  1  0.59362583  0.60862510  0.74219489  1  0  0.046678  0  3.773895  0  0  0.065778  0  4.013626  0  0  0.062284  0  4.038629  0  0  -0.00397  0.067827  0  3.996342  0
C  C38  1  0.47038597  0.51901251  0.20297863  1  0  -0.074805  0  3.642748  0  0  -0.111033  0  3.890695  0  0  -0.108404  0  3.908207  0  0  -0.06718  -0.111469  0  3.877695  0
C  C39  1  0.52960247  0.48098830  0.79701291  1  0  -0.074493  0  3.642844  0  0  -0.11068  0  3.890803  0  0  -0.108059  0  3.908317  0  0  -0.067091  -0.111119  0  3.877793  0
C  C40  1  0.24114440  0.38274308  0.34226862  1  0  0.026624  0  3.772467  0  0  0.033128  0  4.007544  0  0  0.0335  0  4.031334  0  0  -0.003382  0.032991  0  3.991307  0
C  C41  1  0.75885472  0.61725150  0.65773026  1  0  0.026521  0  3.772658  0  0  0.033047  0  4.007715  0  0  0.033417  0  4.031504  0  0  -0.003386  0.032909  0  3.991473  0
C  C42  1  0.20957474  0.28292377  0.48614571  1  0  -0.124958  0  3.719492  0  0  -0.114051  0  3.948259  0  0  -0.118632  0  3.966914  0  0  -0.007802  -0.11059  0  3.935047  0
C  C43  1  0.79042049  0.71707290  0.51385322  1  0  -0.124762  0  3.719581  0  0  -0.113821  0  3.948398  0  0  -0.118399  0  3.967055  0  0  -0.007747  -0.110364  0  3.935191  0
C  C44  1  0.33821402  0.17130693  0.55334619  1  0  0.675625  0  3.814858  0  0  0.62134  0  4.127465  0  0  0.654874  0  4.116539  0  0  0.234568  0.598561  0  4.133811  0
C  C45  1  0.66178293  0.82867919  0.44665641  1  0  0.675762  0  3.814262  0  0  0.621338  0  4.127075  0  0  0.65487  0  4.116155  0  0  0.234591  0.59855  0  4.133434  0
C  C46  1  0.05146155  0.27297572  0.56205628  1  0  -0.077295  0  3.737051  0  0  -0.062818  0  3.966612  0  0  -0.067481  0  3.985195  0  0  -0.01028  -0.059504  0  3.953345  0
C  C47  1  0.94853616  0.72702099  0.43794627  1  0  -0.077422  0  3.737157  0  0  -0.063014  0  3.966748  0  0  -0.067678  0  3.985329  0  0  -0.010332  -0.059693  0  3.953467  0
C  C48  1  0.01932594  0.18385787  0.72445925  1  0  0.725488  0  3.855836  0  0  0.678244  0  4.149822  0  0  0.713851  0  4.143077  0  0  0.235865  0.653789  0  4.157826  0
C  C49  1  0.98066915  0.81613986  0.27554035  1  0  0.725348  0  3.856087  0  0  0.678236  0  4.149815  0  0  0.713844  0  4.143063  0  0  0.235937  0.653787  0  4.157818  0
C  C50  1  0.92421862  0.35557323  0.49005639  1  0  -0.0698  0  3.726935  0  0  -0.094411  0  3.97673  0  0  -0.09422  0  3.994723  0  0  -0.079416  -0.093916  0  3.963616  0
C  C51  1  0.07577683  0.64442348  0.50995080  1  0  -0.069723  0  3.726883  0  0  -0.094306  0  3.976678  0  0  -0.094116  0  3.994674  0  0  -0.079372  -0.093807  0  3.963563  0
C  C52  1  0.95451517  0.45491767  0.34784176  1  0  -0.054085  0  3.745093  0  0  -0.069646  0  4.002666  0  0  -0.070601  0  4.021888  0  0  -0.084089  -0.068758  0  3.988992  0
C  C53  1  0.04547792  0.54507902  0.65216595  1  0  -0.054068  0  3.745167  0  0  -0.069658  0  4.002768  0  0  -0.070615  0  4.021994  0  0  -0.084085  -0.068772  0  3.989093  0
C  C54  1  0.11127471  0.47054697  0.27663724  1  0  -0.090911  0  3.701978  0  0  -0.116544  0  3.961292  0  0  -0.117227  0  3.978706  0  0  -0.079773  -0.116133  0  3.949795  0
C  C55  1  0.88872239  0.52944549  0.72336290  1  0  -0.090949  0  3.702145  0  0  -0.116583  0  3.96148  0  0  -0.117266  0  3.978895  0  0  -0.079824  -0.116177  0  3.949972  0
O  O56  1  0.60933066  0.77605277  0.07283011  1  0  -0.728342  0  2.061039  0  0  -0.673336  0  2.309201  0  0  -0.706069  0  2.299022  0  0  -0.380201  -0.655613  0  2.316891  0
O  O57  1  0.39066395  0.22395444  0.92716180  1  0  -0.728246  0  2.061132  0  0  -0.673241  0  2.309267  0  0  -0.705967  0  2.299087  0  0  -0.38015  -0.65552  0  2.31695  0
O  O58  1  0.84165554  0.66210535  0.00043586  1  0  -0.680024  0  1.959093  0  0  -0.630624  0  2.201663  0  0  -0.66264  0  2.193628  0  0  -0.372348  -0.613328  0  2.206935  0
O  O59  1  0.15833943  0.33789345  0.99956544  1  0  -0.680098  0  1.959129  0  0  -0.630707  0  2.201681  0  0  -0.662727  0  2.193657  0  0  -0.372423  -0.613411  0  2.20695  0
O  O60  1  0.90243222  0.14232920  0.08658899  1  0  -0.773855  0  2.116499  0  0  -0.720897  0  2.382666  0  0  -0.760454  0  2.368832  0  0  -0.406977  -0.702971  0  2.391282  0
O  O61  1  0.09757265  0.85766865  0.91342091  1  0  -0.773931  0  2.116392  0  0  -0.720962  0  2.382559  0  0  -0.760532  0  2.368718  0  0  -0.40698  -0.70303  0  2.39119  0
O  O62  1  0.67694467  0.07452797  0.07759525  1  0  -0.732543  0  2.102561  0  0  -0.670689  0  2.349049  0  0  -0.706073  0  2.33744  0  0  -0.369664  -0.651945  0  2.35667  0
O  O63  1  0.32306150  0.92547622  0.92241091  1  0  -0.732695  0  2.102552  0  0  -0.670743  0  2.348974  0  0  -0.706129  0  2.337356  0  0  -0.36969  -0.651991  0  2.356602  0
O  O64  1  0.45484795  0.21967607  0.58352882  1  0  -0.523588  0  2.057388  0  0  -0.475328  0  2.261047  0  0  -0.49641  0  2.245952  0  0  -0.326424  -0.460478  0  2.270884  0
O  O65  1  0.54515877  0.78032801  0.41645334  1  0  -0.523708  0  2.057409  0  0  -0.475346  0  2.261191  0  0  -0.496424  0  2.246104  0  0  -0.326439  -0.460511  0  2.271055  0
O  O66  1  0.33274047  0.04660792  0.57263497  1  0  -0.545521  0  1.89789  0  0  -0.507099  0  2.112247  0  0  -0.527399  0  2.103871  0  0  -0.284415  -0.492551  0  2.117231  0
O  O67  1  0.66725334  0.95339935  0.42737165  1  0  -0.545765  0  1.897024  0  0  -0.507267  0  2.111441  0  0  -0.527581  0  2.103074  0  0  -0.284516  -0.492712  0  2.116429  0
O  O68  1  0.12143684  0.17515372  0.80532040  1  0  -0.736317  0  2.092825  0  0  -0.690121  0  2.355579  0  0  -0.726801  0  2.345915  0  0  -0.390965  -0.671432  0  2.361917  0
O  O69  1  0.87856904  0.82485151  0.19468126  1  0  -0.736249  0  2.09321  0  0  -0.690123  0  2.355965  0  0  -0.726805  0  2.346298  0  0  -0.390978  -0.671448  0  2.362321  0
O  O70  1  0.89099328  0.12832466  0.77127671  1  0  -0.729865  0  2.017579  0  0  -0.679831  0  2.269542  0  0  -0.714597  0  2.255619  0  0  -0.404028  -0.6626  0  2.277519  0
O  O71  1  0.10901267  0.87167318  0.22872881  1  0  -0.729808  0  2.017403  0  0  -0.679814  0  2.269285  0  0  -0.714579  0  2.255366  0  0  -0.404061  -0.662585  0  2.27726  0
O  O72  1  0.59294225  0.03498349  0.82130082  1  0  -0.901008  0  1.88467  0  0  -0.851302  0  2.078758  0  0  -0.879421  0  2.041989  0  0  -0.616576  -0.837396  0  2.102544  0
O  O73  1  0.40706327  0.96501536  0.17869504  1  0  -0.900932  0  1.884886  0  0  -0.8512  0  2.078958  0  0  -0.879317  0  2.042189  0  0  -0.616482  -0.837266  0  2.102701  0
O  O74  1  0.87245774  0.87309085  0.70979821  1  0  -0.888169  0  1.879236  0  0  -0.841641  0  2.073174  0  0  -0.867665  0  2.040351  0  0  -0.623366  -0.829331  0  2.092139  0
O  O75  1  0.12754432  0.12690799  0.29020153  1  0  -0.888149  0  1.879202  0  0  -0.841621  0  2.073222  0  0  -0.86764  0  2.040405  0  0  -0.623357  -0.82931  0  2.092182  0
