# generated using pymatgen
data_CuH8C6N2Cl
_symmetry_space_group_name_H-M   'P 1'
_cell_length_a   9.17635519
_cell_length_b   11.44204713
_cell_length_c   13.06623807
_cell_angle_alpha   89.99988427
_cell_angle_beta   89.99978581
_cell_angle_gamma   89.99980536
_symmetry_Int_Tables_number   1
_chemical_formula_structural   CuH8C6N2Cl
_chemical_formula_sum   'Cu8 H64 C48 N16 Cl8'
_cell_volume   1371.90650178
_cell_formula_units_Z   8
loop_
 _symmetry_equiv_pos_site_id
 _symmetry_equiv_pos_as_xyz
  1  'x, y, z'
loop_
 _atom_site_type_symbol
 _atom_site_label
 _atom_site_symmetry_multiplicity
 _atom_site_fract_x
 _atom_site_fract_y
 _atom_site_fract_z
 _atom_site_occupancy
 _atom_site_hle17_bader_spin_density
 _atom_site_hle17_ddec_charge
 _atom_site_hle17_ddec_spin_density
 _atom_site_hle17_ddec_sum_bond_order
 _atom_site_hle17_magmom
 _atom_site_hse06_10hf_bader_spin_density
 _atom_site_hse06_10hf_ddec_charge
 _atom_site_hse06_10hf_ddec_spin_density
 _atom_site_hse06_10hf_ddec_sum_bond_order
 _atom_site_hse06_10hf_magmom
 _atom_site_hse06_bader_spin_density
 _atom_site_hse06_ddec_charge
 _atom_site_hse06_ddec_spin_density
 _atom_site_hse06_ddec_sum_bond_order
 _atom_site_hse06_magmom
 _atom_site_pbe_bader_spin_density
 _atom_site_pbe_cm5_charge
 _atom_site_pbe_ddec_charge
 _atom_site_pbe_ddec_spin_density
 _atom_site_pbe_ddec_sum_bond_order
 _atom_site_pbe_magmom
Cu  Cu0  1  0.41861508  0.53121248  0.38815047  1  0  0.448394  0  1.921943  0  0  0.359196  0  2.366556  0  0  0.348914  0  2.331194  0  0  0.453092  0.370266  0  2.386211  0
Cu  Cu1  1  0.58138339  0.96878722  0.88815224  1  0  0.448415  0  1.922037  0  0  0.359212  0  2.366671  0  0  0.348933  0  2.33131  0  0  0.453112  0.370297  0  2.386323  0
Cu  Cu2  1  0.91861619  0.46878796  0.11184921  1  0  0.448414  0  1.922111  0  0  0.359196  0  2.366721  0  0  0.348938  0  2.331381  0  0  0.453103  0.370297  0  2.38635  0
Cu  Cu3  1  0.08138361  0.03121387  0.61184927  1  0  0.448395  0  1.922022  0  0  0.359164  0  2.366654  0  0  0.348852  0  2.331293  0  0  0.453097  0.370245  0  2.386326  0
Cu  Cu4  1  0.58138623  0.46878872  0.61185050  1  0  0.448406  0  1.921967  0  0  0.35917  0  2.366601  0  0  0.34887  0  2.331235  0  0  0.453098  0.370257  0  2.386247  0
Cu  Cu5  1  0.41861574  0.03121398  0.11184721  1  0  0.448429  0  1.922006  0  0  0.359203  0  2.366638  0  0  0.348891  0  2.331259  0  0  0.453091  0.370278  0  2.386283  0
Cu  Cu6  1  0.08137968  0.53121149  0.88815330  1  0  0.448402  0  1.921978  0  0  0.359187  0  2.366566  0  0  0.348895  0  2.331228  0  0  0.453059  0.370271  0  2.386197  0
Cu  Cu7  1  0.91861443  0.96878558  0.38815324  1  0  0.44844  0  1.921818  0  0  0.359178  0  2.366458  0  0  0.348934  0  2.331078  0  0  0.453076  0.370283  0  2.386154  0
H  H8  1  0.25502508  0.11895092  0.29573425  1  0  0.094526  0  0.97217  0  0  0.102541  0  1.037568  0  0  0.105266  0  1.036782  0  0  0.10744  0.100307  0  1.038734  0
H  H9  1  0.74496832  0.38104874  0.79573420  1  0  0.094508  0  0.972247  0  0  0.102548  0  1.03762  0  0  0.105291  0  1.036809  0  0  0.107444  0.100314  0  1.038792  0
H  H10  1  0.75503271  0.88104823  0.20426511  1  0  0.094515  0  0.972326  0  0  0.102524  0  1.037729  0  0  0.105284  0  1.036902  0  0  0.107458  0.100299  0  1.038894  0
H  H11  1  0.24496671  0.61894665  0.70426457  1  0  0.094486  0  0.972303  0  0  0.102546  0  1.037658  0  0  0.105302  0  1.03683  0  0  0.107452  0.100315  0  1.038815  0
H  H12  1  0.74497187  0.88105203  0.70426672  1  0  0.094462  0  0.97228  0  0  0.10253  0  1.037637  0  0  0.105289  0  1.036809  0  0  0.107433  0.100302  0  1.038797  0
H  H13  1  0.25503191  0.61895421  0.20426295  1  0  0.094556  0  0.972298  0  0  0.102549  0  1.037713  0  0  0.105307  0  1.036885  0  0  0.107458  0.100316  0  1.038892  0
H  H14  1  0.24496860  0.11894861  0.79573587  1  0  0.094514  0  0.972254  0  0  0.102533  0  1.037647  0  0  0.105267  0  1.036849  0  0  0.107438  0.100294  0  1.03882  0
H  H15  1  0.75503025  0.38105018  0.29573717  1  0  0.094469  0  0.972197  0  0  0.102496  0  1.037568  0  0  0.105251  0  1.036744  0  0  0.107424  0.100262  0  1.03873  0
H  H16  1  0.25945866  0.30338982  0.39787595  1  0  0.09416  0  0.94279  0  0  0.105132  0  1.001273  0  0  0.108104  0  0.999795  0  0  0.117017  0.102902  0  1.002453  0
H  H17  1  0.74054076  0.19660873  0.89787547  1  0  0.094163  0  0.942724  0  0  0.105136  0  1.001203  0  0  0.108109  0  0.999724  0  0  0.117022  0.102908  0  1.002403  0
H  H18  1  0.75945777  0.69661019  0.10212186  1  0  0.094129  0  0.942776  0  0  0.10511  0  1.001264  0  0  0.108083  0  0.999784  0  0  0.117014  0.102897  0  1.002433  0
H  H19  1  0.24053672  0.80338842  0.60212254  1  0  0.094184  0  0.942733  0  0  0.105158  0  1.001215  0  0  0.10813  0  0.999737  0  0  0.117055  0.10295  0  1.002395  0
H  H20  1  0.74054157  0.69661488  0.60212196  1  0  0.094104  0  0.942801  0  0  0.105117  0  1.001238  0  0  0.108089  0  0.99976  0  0  0.11703  0.102907  0  1.002427  0
H  H21  1  0.25946383  0.80339160  0.10212397  1  0  0.094117  0  0.942763  0  0  0.105084  0  1.001261  0  0  0.108057  0  0.999783  0  0  0.117028  0.10287  0  1.002433  0
H  H22  1  0.24053809  0.30339102  0.89787529  1  0  0.094178  0  0.942767  0  0  0.105155  0  1.001249  0  0  0.108125  0  0.999771  0  0  0.117052  0.102946  0  1.00241  0
H  H23  1  0.75946241  0.19661016  0.39787767  1  0  0.09417  0  0.942745  0  0  0.105149  0  1.001231  0  0  0.108121  0  0.999753  0  0  0.117036  0.102931  0  1.002401  0
H  H24  1  0.47853061  0.54025829  0.11816755  1  0  0.121534  0  0.970108  0  0  0.144397  0  1.028735  0  0  0.145392  0  1.030201  0  0  0.093737  0.144176  0  1.02676  0
H  H25  1  0.52146816  0.95973854  0.61816796  1  0  0.121499  0  0.970122  0  0  0.14436  0  1.028766  0  0  0.14535  0  1.030247  0  0  0.093723  0.144139  0  1.026791  0
H  H26  1  0.97852927  0.45973936  0.38183273  1  0  0.121511  0  0.97008  0  0  0.144366  0  1.02873  0  0  0.14536  0  1.030201  0  0  0.093713  0.144145  0  1.026747  0
H  H27  1  0.02147240  0.04025923  0.88183371  1  0  0.121492  0  0.970123  0  0  0.14436  0  1.028752  0  0  0.145351  0  1.03023  0  0  0.093711  0.144144  0  1.02677  0
H  H28  1  0.52147070  0.45974291  0.88183113  1  0  0.121539  0  0.97013  0  0  0.14439  0  1.028765  0  0  0.145384  0  1.030236  0  0  0.093732  0.144173  0  1.026786  0
H  H29  1  0.47853098  0.04025830  0.38183225  1  0  0.12153  0  0.970106  0  0  0.144394  0  1.028737  0  0  0.145386  0  1.030212  0  0  0.093724  0.144171  0  1.026741  0
H  H30  1  0.02146877  0.54026097  0.61816748  1  0  0.121521  0  0.970098  0  0  0.144374  0  1.028749  0  0  0.145367  0  1.03022  0  0  0.093721  0.144154  0  1.026762  0
H  H31  1  0.97853218  0.95974110  0.11816880  1  0  0.121551  0  0.970092  0  0  0.144389  0  1.028759  0  0  0.145384  0  1.030224  0  0  0.093737  0.144164  0  1.026792  0
H  H32  1  0.64519824  0.46288991  0.12468189  1  0  0.110978  0  0.99732  0  0  0.120474  0  1.08246  0  0  0.125354  0  1.077672  0  0  0.081892  0.117767  0  1.084345  0
H  H33  1  0.35480258  0.03710666  0.62467967  1  0  0.111012  0  0.997312  0  0  0.120528  0  1.082426  0  0  0.125415  0  1.077625  0  0  0.081927  0.117826  0  1.084298  0
H  H34  1  0.14519718  0.53710780  0.37532006  1  0  0.11099  0  0.997335  0  0  0.120499  0  1.082456  0  0  0.125375  0  1.077669  0  0  0.081916  0.11779  0  1.084333  0
H  H35  1  0.85480245  0.96289193  0.87532109  1  0  0.11098  0  0.997301  0  0  0.12047  0  1.082442  0  0  0.125358  0  1.077648  0  0  0.081902  0.117761  0  1.084334  0
H  H36  1  0.35480198  0.53711130  0.87531832  1  0  0.111046  0  0.997316  0  0  0.120544  0  1.08244  0  0  0.125429  0  1.077639  0  0  0.08192  0.117836  0  1.084312  0
H  H37  1  0.64519437  0.96289280  0.37532054  1  0  0.110926  0  0.997435  0  0  0.120482  0  1.082476  0  0  0.125359  0  1.077689  0  0  0.081885  0.117759  0  1.084381  0
H  H38  1  0.85480196  0.46289341  0.62467938  1  0  0.111012  0  0.997297  0  0  0.120516  0  1.082412  0  0  0.125398  0  1.077616  0  0  0.081916  0.117807  0  1.084294  0
H  H39  1  0.14519777  0.03710840  0.12468218  1  0  0.110957  0  0.997356  0  0  0.120482  0  1.082468  0  0  0.125372  0  1.077665  0  0  0.081895  0.117772  0  1.084358  0
H  H40  1  0.58095769  0.54190895  0.23405845  1  0  0.114965  0  0.981452  0  0  0.127795  0  1.055656  0  0  0.131541  0  1.05326  0  0  0.085116  0.125099  0  1.057262  0
H  H41  1  0.41904158  0.95809024  0.73405608  1  0  0.114945  0  0.981419  0  0  0.127797  0  1.055614  0  0  0.131544  0  1.053216  0  0  0.085115  0.125096  0  1.057235  0
H  H42  1  0.08095861  0.45808981  0.26594214  1  0  0.114937  0  0.981386  0  0  0.127767  0  1.055605  0  0  0.131514  0  1.053207  0  0  0.085093  0.125061  0  1.05722  0
H  H43  1  0.91904366  0.04190992  0.76594451  1  0  0.115019  0  0.981425  0  0  0.127843  0  1.055637  0  0  0.131594  0  1.053234  0  0  0.085132  0.125141  0  1.057247  0
H  H44  1  0.41904471  0.45809226  0.76594099  1  0  0.115007  0  0.98141  0  0  0.127832  0  1.055625  0  0  0.131578  0  1.053233  0  0  0.085122  0.12514  0  1.057226  0
H  H45  1  0.58095865  0.04191184  0.26594106  1  0  0.114978  0  0.981391  0  0  0.127808  0  1.055602  0  0  0.131555  0  1.053202  0  0  0.085114  0.125102  0  1.057213  0
H  H46  1  0.91903943  0.54191139  0.73405654  1  0  0.114962  0  0.981444  0  0  0.127806  0  1.055627  0  0  0.131555  0  1.053226  0  0  0.085125  0.125101  0  1.057245  0
H  H47  1  0.08095765  0.95808954  0.23405800  1  0  0.114977  0  0.981416  0  0  0.127813  0  1.055623  0  0  0.131559  0  1.053228  0  0  0.08511  0.125111  0  1.057238  0
H  H48  1  0.48248814  0.20471417  0.99623159  1  0  0.113999  0  0.990776  0  0  0.124872  0  1.068078  0  0  0.129887  0  1.063292  0  0  0.082923  0.121019  0  1.071796  0
H  H49  1  0.51751404  0.29528853  0.49623292  1  0  0.113955  0  0.990825  0  0  0.124863  0  1.068099  0  0  0.129877  0  1.063315  0  0  0.08292  0.121015  0  1.071825  0
H  H50  1  0.98248735  0.79528669  0.50376959  1  0  0.113967  0  0.99081  0  0  0.124866  0  1.06809  0  0  0.129884  0  1.063304  0  0  0.082916  0.121017  0  1.071814  0
H  H51  1  0.01750983  0.70471215  0.00376861  1  0  0.113968  0  0.990812  0  0  0.124846  0  1.068101  0  0  0.129861  0  1.063316  0  0  0.082898  0.120999  0  1.071821  0
H  H52  1  0.51751645  0.79528529  0.00377015  1  0  0.113976  0  0.990785  0  0  0.124865  0  1.068079  0  0  0.129884  0  1.063289  0  0  0.082915  0.121017  0  1.071775  0
H  H53  1  0.48249055  0.70471180  0.50376653  1  0  0.113995  0  0.990795  0  0  0.124876  0  1.068085  0  0  0.129888  0  1.063302  0  0  0.082918  0.121025  0  1.07182  0
H  H54  1  0.01751069  0.20471102  0.49623367  1  0  0.113976  0  0.990789  0  0  0.124858  0  1.068077  0  0  0.12987  0  1.063295  0  0  0.082904  0.121003  0  1.071797  0
H  H55  1  0.98248930  0.29528905  0.99623236  1  0  0.113997  0  0.990776  0  0  0.12488  0  1.06806  0  0  0.129895  0  1.063276  0  0  0.082908  0.121032  0  1.071785  0
H  H56  1  0.63665840  0.28423929  0.04088441  1  0  0.126165  0  0.951055  0  0  0.145512  0  1.015961  0  0  0.146781  0  1.01654  0  0  0.094225  0.14446  0  1.015681  0
H  H57  1  0.36333850  0.21576183  0.54088798  1  0  0.12612  0  0.951079  0  0  0.14547  0  1.016012  0  0  0.146741  0  1.016593  0  0  0.094193  0.144413  0  1.015704  0
H  H58  1  0.13666161  0.71576018  0.45911297  1  0  0.12613  0  0.951071  0  0  0.14548  0  1.015997  0  0  0.146751  0  1.016581  0  0  0.094207  0.144433  0  1.01571  0
H  H59  1  0.86333977  0.78423848  0.95911735  1  0  0.126142  0  0.951076  0  0  0.14549  0  1.015988  0  0  0.14676  0  1.016566  0  0  0.094197  0.144447  0  1.0157  0
H  H60  1  0.36334182  0.71576017  0.95911580  1  0  0.126162  0  0.951036  0  0  0.145504  0  1.015963  0  0  0.146772  0  1.016543  0  0  0.094231  0.144472  0  1.01567  0
H  H61  1  0.63666064  0.78423762  0.45911223  1  0  0.126134  0  0.951098  0  0  0.145486  0  1.016008  0  0  0.146756  0  1.016588  0  0  0.094223  0.144438  0  1.015731  0
H  H62  1  0.86333970  0.28423840  0.54088494  1  0  0.126132  0  0.951091  0  0  0.145484  0  1.015995  0  0  0.146753  0  1.016573  0  0  0.094207  0.144429  0  1.015721  0
H  H63  1  0.13665937  0.21576185  0.04088745  1  0  0.126138  0  0.951107  0  0  0.145489  0  1.016011  0  0  0.146759  0  1.016588  0  0  0.094224  0.14444  0  1.015727  0
H  H64  1  0.48230037  0.36156285  0.99635390  1  0  0.119677  0  0.968662  0  0  0.142614  0  1.026132  0  0  0.143686  0  1.027319  0  0  0.092155  0.14171  0  1.025297  0
H  H65  1  0.51769962  0.13844159  0.49635551  1  0  0.119692  0  0.968595  0  0  0.142652  0  1.026053  0  0  0.143725  0  1.027238  0  0  0.092173  0.141758  0  1.025193  0
H  H66  1  0.98230460  0.63844150  0.50364422  1  0  0.119719  0  0.968585  0  0  0.142685  0  1.02603  0  0  0.143757  0  1.027217  0  0  0.092178  0.14179  0  1.025178  0
H  H67  1  0.01769804  0.86156083  0.00364832  1  0  0.119723  0  0.968581  0  0  0.142649  0  1.026065  0  0  0.143721  0  1.02725  0  0  0.092167  0.14176  0  1.025218  0
H  H68  1  0.51770203  0.63844098  0.00364401  1  0  0.119727  0  0.968615  0  0  0.142679  0  1.026071  0  0  0.143752  0  1.027255  0  0  0.092178  0.141796  0  1.025212  0
H  H69  1  0.48229951  0.86156136  0.50364470  1  0  0.119742  0  0.968585  0  0  0.142674  0  1.026063  0  0  0.143747  0  1.027248  0  0  0.092184  0.141782  0  1.02521  0
H  H70  1  0.01769999  0.36156232  0.49635369  1  0  0.1197  0  0.968634  0  0  0.142632  0  1.026114  0  0  0.143704  0  1.027301  0  0  0.092159  0.141734  0  1.025259  0
H  H71  1  0.98230110  0.13843862  0.99635648  1  0  0.119736  0  0.968607  0  0  0.142672  0  1.026078  0  0  0.143743  0  1.027266  0  0  0.092184  0.141777  0  1.025233  0
C  C72  1  0.46362611  0.38442946  0.20443737  1  0  0.219695  0  3.665875  0  0  0.22615  0  3.906904  0  0  0.231231  0  3.923839  0  0  0.12104  0.222478  0  3.896728  0
C  C73  1  0.53637648  0.11557129  0.70443376  1  0  0.219844  0  3.665602  0  0  0.226243  0  3.906687  0  0  0.231332  0  3.923627  0  0  0.121117  0.222575  0  3.89649  0
C  C74  1  0.96362565  0.61556911  0.29556525  1  0  0.219748  0  3.665675  0  0  0.226217  0  3.906669  0  0  0.231307  0  3.923608  0  0  0.121107  0.222563  0  3.896483  0
C  C75  1  0.03637439  0.88442905  0.79556557  1  0  0.219771  0  3.665685  0  0  0.226245  0  3.906725  0  0  0.231334  0  3.923666  0  0  0.121109  0.222566  0  3.896531  0
C  C76  1  0.53637848  0.61557000  0.79556360  1  0  0.21984  0  3.665564  0  0  0.226248  0  3.906602  0  0  0.231335  0  3.923539  0  0  0.121107  0.222598  0  3.896415  0
C  C77  1  0.46362483  0.88442904  0.29556569  1  0  0.21981  0  3.665641  0  0  0.226174  0  3.906755  0  0  0.231263  0  3.92369  0  0  0.121072  0.222509  0  3.89656  0
C  C78  1  0.03637130  0.38442859  0.70443573  1  0  0.219731  0  3.665805  0  0  0.226151  0  3.906816  0  0  0.231237  0  3.923759  0  0  0.121102  0.222477  0  3.896625  0
C  C79  1  0.96362693  0.11557128  0.20443540  1  0  0.219823  0  3.665698  0  0  0.226262  0  3.906744  0  0  0.23135  0  3.923684  0  0  0.12113  0.222585  0  3.896552  0
C  C80  1  0.45236819  0.28396937  0.14238442  1  0  0.227062  0  3.646934  0  0  0.230659  0  3.889841  0  0  0.237033  0  3.905482  0  0  0.120338  0.225452  0  3.880845  0
C  C81  1  0.54762927  0.21603239  0.64238366  1  0  0.226976  0  3.646917  0  0  0.230601  0  3.889833  0  0  0.236951  0  3.905507  0  0  0.120316  0.225415  0  3.880811  0
C  C82  1  0.95236809  0.71603272  0.35761517  1  0  0.227154  0  3.646942  0  0  0.230737  0  3.889844  0  0  0.237087  0  3.905522  0  0  0.120382  0.225541  0  3.880847  0
C  C83  1  0.04763163  0.78396792  0.85761717  1  0  0.227074  0  3.646829  0  0  0.230553  0  3.889908  0  0  0.236901  0  3.905582  0  0  0.120312  0.225428  0  3.880817  0
C  C84  1  0.54763203  0.71603271  0.85761502  1  0  0.227106  0  3.646759  0  0  0.230756  0  3.889642  0  0  0.237105  0  3.905317  0  0  0.120405  0.225552  0  3.880657  0
C  C85  1  0.45237205  0.78396794  0.35761578  1  0  0.226943  0  3.646901  0  0  0.230571  0  3.889835  0  0  0.23692  0  3.90551  0  0  0.120334  0.22539  0  3.880807  0
C  C86  1  0.04762995  0.28396761  0.64238428  1  0  0.226966  0  3.64699  0  0  0.2306  0  3.889852  0  0  0.236952  0  3.905526  0  0  0.120326  0.225432  0  3.880804  0
C  C87  1  0.95236751  0.21603241  0.14238457  1  0  0.227126  0  3.64683  0  0  0.23074  0  3.889764  0  0  0.23709  0  3.905439  0  0  0.120369  0.225582  0  3.880705  0
C  C88  1  0.31201385  0.19588903  0.26714975  1  0  0.061636  0  3.684224  0  0  0.028737  0  3.948027  0  0  0.031417  0  3.96199  0  0  0.02996  0.026346  0  3.940105  0
C  C89  1  0.68798296  0.30411419  0.76714998  1  0  0.061596  0  3.684216  0  0  0.028655  0  3.948046  0  0  0.031325  0  3.962  0  0  0.029945  0.026273  0  3.940125  0
C  C90  1  0.81201621  0.80411345  0.23284792  1  0  0.061583  0  3.684447  0  0  0.028653  0  3.948273  0  0  0.031306  0  3.962224  0  0  0.029927  0.026262  0  3.94037  0
C  C91  1  0.18798415  0.69588486  0.73284970  1  0  0.061619  0  3.684284  0  0  0.028667  0  3.948084  0  0  0.031329  0  3.962038  0  0  0.029951  0.026278  0  3.940169  0
C  C92  1  0.68798528  0.80411217  0.73284816  1  0  0.061548  0  3.684086  0  0  0.028597  0  3.94793  0  0  0.031255  0  3.961881  0  0  0.029929  0.02622  0  3.939995  0
C  C93  1  0.31201944  0.69588526  0.23284793  1  0  0.061482  0  3.68435  0  0  0.028578  0  3.948196  0  0  0.031235  0  3.962146  0  0  0.02993  0.026187  0  3.940301  0
C  C94  1  0.18798293  0.19588600  0.76715076  1  0  0.06164  0  3.684277  0  0  0.028719  0  3.948098  0  0  0.031393  0  3.962054  0  0  0.029951  0.026327  0  3.94019  0
C  C95  1  0.81201498  0.30410848  0.26715127  1  0  0.061602  0  3.684337  0  0  0.028744  0  3.948119  0  0  0.031406  0  3.962071  0  0  0.029956  0.026365  0  3.940185  0
C  C96  1  0.31657195  0.29681845  0.32501941  1  0  0.073715  0  3.682968  0  0  0.044597  0  3.941956  0  0  0.047461  0  3.954798  0  0  0.035971  0.042743  0  3.933916  0
C  C97  1  0.68342784  0.20318115  0.82501677  1  0  0.073865  0  3.682728  0  0  0.044761  0  3.941685  0  0  0.047622  0  3.954538  0  0  0.036031  0.042913  0  3.93364  0
C  C98  1  0.81657393  0.70318053  0.17497978  1  0  0.07388  0  3.682889  0  0  0.044755  0  3.941838  0  0  0.047619  0  3.95469  0  0  0.035995  0.042897  0  3.933825  0
C  C99  1  0.18342673  0.79681704  0.67498139  1  0  0.073789  0  3.682873  0  0  0.044653  0  3.941864  0  0  0.047518  0  3.954708  0  0  0.035949  0.042792  0  3.933851  0
C  C100  1  0.68343046  0.70318013  0.67498003  1  0  0.073873  0  3.682929  0  0  0.044712  0  3.941908  0  0  0.047573  0  3.954757  0  0  0.036022  0.042862  0  3.933866  0
C  C101  1  0.31657347  0.79681831  0.17498267  1  0  0.07394  0  3.682766  0  0  0.044828  0  3.941691  0  0  0.047687  0  3.95454  0  0  0.036003  0.042972  0  3.933675  0
C  C102  1  0.18342520  0.29681543  0.82501813  1  0  0.073757  0  3.682823  0  0  0.0446  0  3.941827  0  0  0.047465  0  3.954667  0  0  0.035932  0.042738  0  3.933818  0
C  C103  1  0.81657132  0.20318154  0.32501882  1  0  0.073825  0  3.682965  0  0  0.044683  0  3.941929  0  0  0.047543  0  3.954784  0  0  0.035994  0.042839  0  3.933879  0
C  C104  1  0.54811596  0.48765566  0.16884544  1  0  -0.373618  0  3.714419  0  0  -0.457104  0  3.95687  0  0  -0.462033  0  3.961495  0  0  -0.250483  -0.453689  0  3.952764  0
C  C105  1  0.45188355  0.01234429  0.66884223  1  0  -0.373671  0  3.714445  0  0  -0.45714  0  3.956834  0  0  -0.462068  0  3.96145  0  0  -0.250543  -0.453728  0  3.952731  0
C  C106  1  0.04811740  0.51234318  0.33115754  1  0  -0.373592  0  3.714305  0  0  -0.457088  0  3.956767  0  0  -0.462012  0  3.961392  0  0  -0.250507  -0.453669  0  3.952652  0
C  C107  1  0.95188354  0.98765752  0.83115827  1  0  -0.373659  0  3.714356  0  0  -0.457123  0  3.956787  0  0  -0.46206  0  3.961394  0  0  -0.250513  -0.453709  0  3.952683  0
C  C108  1  0.45188427  0.51234467  0.83115477  1  0  -0.373767  0  3.714471  0  0  -0.457229  0  3.956896  0  0  -0.462156  0  3.961516  0  0  -0.250528  -0.453817  0  3.95277  0
C  C109  1  0.54811668  0.98765691  0.33115491  1  0  -0.3736  0  3.714378  0  0  -0.457093  0  3.95683  0  0  -0.462018  0  3.961464  0  0  -0.2505  -0.453677  0  3.952721  0
C  C110  1  0.95188282  0.48765715  0.66884420  1  0  -0.373651  0  3.714379  0  0  -0.457137  0  3.95686  0  0  -0.46206  0  3.961484  0  0  -0.250537  -0.453721  0  3.952752  0
C  C111  1  0.04811559  0.01234456  0.16884577  1  0  -0.373676  0  3.714463  0  0  -0.457134  0  3.95685  0  0  -0.462065  0  3.961468  0  0  -0.250512  -0.453717  0  3.952759  0
C  C112  1  0.51693876  0.28307359  0.03797019  1  0  -0.374179  0  3.724834  0  0  -0.457424  0  3.962591  0  0  -0.461818  0  3.969053  0  0  -0.249266  -0.454016  0  3.958777  0
C  C113  1  0.48305815  0.21693279  0.53797114  1  0  -0.374068  0  3.72475  0  0  -0.457391  0  3.962497  0  0  -0.461784  0  3.968975  0  0  -0.249244  -0.453995  0  3.958641  0
C  C114  1  0.01694086  0.71693321  0.46202751  1  0  -0.374155  0  3.724721  0  0  -0.457464  0  3.962478  0  0  -0.461864  0  3.968954  0  0  -0.249246  -0.454056  0  3.958642  0
C  C115  1  0.98305941  0.78307156  0.96203158  1  0  -0.374129  0  3.724642  0  0  -0.457346  0  3.962433  0  0  -0.461735  0  3.968902  0  0  -0.249174  -0.453965  0  3.95858  0
C  C116  1  0.48306146  0.71692937  0.96202848  1  0  -0.374235  0  3.724771  0  0  -0.457532  0  3.962524  0  0  -0.461924  0  3.968989  0  0  -0.24928  -0.454133  0  3.958661  0
C  C117  1  0.51694208  0.78307016  0.46202984  1  0  -0.374137  0  3.724744  0  0  -0.457411  0  3.962516  0  0  -0.461798  0  3.968991  0  0  -0.249247  -0.454008  0  3.958692  0
C  C118  1  0.98305936  0.28307149  0.53796887  1  0  -0.374067  0  3.724698  0  0  -0.457338  0  3.962447  0  0  -0.461725  0  3.968921  0  0  -0.249212  -0.453943  0  3.958609  0
C  C119  1  0.01694082  0.21692877  0.03797016  1  0  -0.374241  0  3.724717  0  0  -0.457508  0  3.962511  0  0  -0.461895  0  3.968982  0  0  -0.24928  -0.454113  0  3.958673  0
N  N120  1  0.39622219  0.39079893  0.29628027  1  0  -0.295434  0  3.307098  0  0  -0.237049  0  3.596669  0  0  -0.238667  0  3.599405  0  0  -0.347383  -0.236958  0  3.594759  0
N  N121  1  0.60378211  0.10919461  0.79627801  1  0  -0.29565  0  3.307057  0  0  -0.237212  0  3.596602  0  0  -0.238834  0  3.599339  0  0  -0.347437  -0.237121  0  3.594696  0
N  N122  1  0.89622114  0.60919371  0.20371947  1  0  -0.295653  0  3.307173  0  0  -0.237224  0  3.596699  0  0  -0.238851  0  3.599444  0  0  -0.347417  -0.237137  0  3.594793  0
N  N123  1  0.10377937  0.89080030  0.70372037  1  0  -0.295614  0  3.307094  0  0  -0.237166  0  3.596615  0  0  -0.238781  0  3.599336  0  0  -0.347407  -0.237073  0  3.594729  0
N  N124  1  0.60378240  0.60919878  0.70371994  1  0  -0.295556  0  3.307108  0  0  -0.237088  0  3.596603  0  0  -0.238702  0  3.599325  0  0  -0.347403  -0.236995  0  3.594687  0
N  N125  1  0.39622030  0.89080485  0.20372143  1  0  -0.295713  0  3.307052  0  0  -0.237226  0  3.596574  0  0  -0.238832  0  3.599284  0  0  -0.347442  -0.237142  0  3.594672  0
N  N126  1  0.10377690  0.39080051  0.79627997  1  0  -0.295568  0  3.307007  0  0  -0.237105  0  3.59652  0  0  -0.238719  0  3.599249  0  0  -0.347406  -0.237019  0  3.594614  0
N  N127  1  0.89621977  0.10920003  0.29627907  1  0  -0.295591  0  3.307052  0  0  -0.237166  0  3.596607  0  0  -0.238797  0  3.599356  0  0  -0.347404  -0.237082  0  3.594726  0
N  N128  1  0.38203646  0.18713361  0.17585942  1  0  -0.30257  0  3.305357  0  0  -0.241579  0  3.598951  0  0  -0.243752  0  3.601004  0  0  -0.351576  -0.241585  0  3.598011  0
N  N129  1  0.61796083  0.31286633  0.67586136  1  0  -0.302516  0  3.305415  0  0  -0.241532  0  3.599019  0  0  -0.243702  0  3.601092  0  0  -0.351572  -0.241542  0  3.598065  0
N  N130  1  0.88203613  0.81286081  0.32413653  1  0  -0.302595  0  3.305541  0  0  -0.241562  0  3.599088  0  0  -0.243746  0  3.601186  0  0  -0.351569  -0.241584  0  3.598184  0
N  N131  1  0.11796158  0.68713379  0.82414081  1  0  -0.302564  0  3.305423  0  0  -0.241533  0  3.599057  0  0  -0.243707  0  3.601142  0  0  -0.351574  -0.241573  0  3.598093  0
N  N132  1  0.61796049  0.81286847  0.82414002  1  0  -0.302542  0  3.305225  0  0  -0.241607  0  3.598873  0  0  -0.243782  0  3.600959  0  0  -0.351645  -0.24162  0  3.597934  0
N  N133  1  0.38204485  0.68713313  0.32413655  1  0  -0.302415  0  3.305372  0  0  -0.24144  0  3.59898  0  0  -0.243614  0  3.601067  0  0  -0.35159  -0.241459  0  3.598035  0
N  N134  1  0.11796083  0.18713253  0.67585985  1  0  -0.302539  0  3.305443  0  0  -0.241542  0  3.599016  0  0  -0.243708  0  3.60108  0  0  -0.351583  -0.241551  0  3.598066  0
N  N135  1  0.88203537  0.31286829  0.17585940  1  0  -0.3026  0  3.30539  0  0  -0.241674  0  3.599035  0  0  -0.243858  0  3.601133  0  0  -0.351635  -0.241703  0  3.59807  0
Cl  Cl136  1  0.32502204  0.48583156  0.55105598  1  0  -0.5807  0  1.120993  0  0  -0.509512  0  1.435825  0  0  -0.525772  0  1.41318  0  0  -0.316222  -0.498527  0  1.449246  0
Cl  Cl137  1  0.67498025  0.01417304  0.05105585  1  0  -0.580696  0  1.120989  0  0  -0.509522  0  1.435827  0  0  -0.525794  0  1.41321  0  0  -0.316234  -0.498531  0  1.449242  0
Cl  Cl138  1  0.82501795  0.51417148  0.94894486  1  0  -0.580659  0  1.120974  0  0  -0.509485  0  1.435817  0  0  -0.525762  0  1.413211  0  0  -0.316201  -0.498494  0  1.449231  0
Cl  Cl139  1  0.17497912  0.98582807  0.44894449  1  0  -0.580692  0  1.120978  0  0  -0.509512  0  1.435826  0  0  -0.525786  0  1.413209  0  0  -0.316234  -0.498535  0  1.449262  0
Cl  Cl140  1  0.67497927  0.51417227  0.44894346  1  0  -0.580728  0  1.120988  0  0  -0.50954  0  1.435811  0  0  -0.525808  0  1.413184  0  0  -0.316232  -0.498543  0  1.449228  0
Cl  Cl141  1  0.32502106  0.98582816  0.94894359  1  0  -0.580682  0  1.120986  0  0  -0.509505  0  1.435836  0  0  -0.525772  0  1.413212  0  0  -0.316228  -0.498525  0  1.449262  0
Cl  Cl142  1  0.17498010  0.48582885  0.05105688  1  0  -0.580698  0  1.120999  0  0  -0.509502  0  1.435812  0  0  -0.525778  0  1.413197  0  0  -0.316215  -0.498509  0  1.449225  0
Cl  Cl143  1  0.82501675  0.01416876  0.55105725  1  0  -0.580676  0  1.120952  0  0  -0.5095  0  1.435802  0  0  -0.52577  0  1.413173  0  0  -0.316225  -0.498518  0  1.449245  0
