# generated using pymatgen
data_ZnH18C26(NO2)2
_symmetry_space_group_name_H-M   'P 1'
_cell_length_a   5.32254717
_cell_length_b   14.38197915
_cell_length_c   18.92157226
_cell_angle_alpha   99.09613817
_cell_angle_beta   89.97503666
_cell_angle_gamma   100.70774628
_symmetry_Int_Tables_number   1
_chemical_formula_structural   ZnH18C26(NO2)2
_chemical_formula_sum   'Zn2 H36 C52 N4 O8'
_cell_volume   1404.67982083
_cell_formula_units_Z   2
loop_
 _symmetry_equiv_pos_site_id
 _symmetry_equiv_pos_as_xyz
  1  'x, y, z'
loop_
 _atom_site_type_symbol
 _atom_site_label
 _atom_site_symmetry_multiplicity
 _atom_site_fract_x
 _atom_site_fract_y
 _atom_site_fract_z
 _atom_site_occupancy
 _atom_site_pbe_bader_charge
 _atom_site_pbe_bader_spin_density
 _atom_site_pbe_cm5_charge
 _atom_site_pbe_ddec_charge
 _atom_site_pbe_ddec_spin_density
 _atom_site_pbe_ddec_sum_bond_order
 _atom_site_pbe_magmom
Zn  Zn0  1  0.56141777  0.99995066  0.24995049  1  1.243549  0  0.695393  0.751326  0  2.394122  0
Zn  Zn1  1  0.43854012  0.00003778  0.75004542  1  1.243689  0  0.695336  0.751181  0  2.394614  0
H  H2  1  0.16675413  0.18223459  0.37186446  1  0.095079  0  0.090111  0.088466  0  1.06241  0
H  H3  1  0.98484688  0.81789768  0.12784889  1  0.055315  0  0.090772  0.0896  0  1.06253  0
H  H4  1  0.83325127  0.81774750  0.62814321  1  0.095411  0  0.090107  0.088466  0  1.062543  0
H  H5  1  0.01517959  0.18212260  0.87214535  1  0.055636  0  0.090682  0.089548  0  1.062858  0
H  H6  1  0.43896101  0.31149361  0.45519421  1  0.052539  0  0.095784  0.093785  0  1.018516  0
H  H7  1  0.12732221  0.68857087  0.04454811  1  0.053194  0  0.095406  0.09278  0  1.01903  0
H  H8  1  0.56105898  0.68849508  0.54481125  1  0.052102  0  0.095747  0.093684  0  1.018358  0
H  H9  1  0.87272917  0.31144663  0.95544414  1  0.053627  0  0.095372  0.092621  0  1.019258  0
H  H10  1  0.99740471  0.51326524  0.39806909  1  0.070782  0  0.099933  0.101201  0  0.998155  0
H  H11  1  0.48366669  0.48677210  0.10202980  1  0.072101  0  0.100244  0.102148  0  0.998279  0
H  H12  1  0.00257985  0.48672402  0.60193963  1  0.070422  0  0.099913  0.101056  0  0.998344  0
H  H13  1  0.51638401  0.51323650  0.89795268  1  0.072605  0  0.100243  0.102038  0  0.998306  0
H  H14  1  0.72243287  0.38070202  0.31563113  1  0.125295  0  0.106392  0.113624  0  0.992194  0
H  H15  1  0.34165623  0.61944453  0.18443762  1  0.124952  0  0.106603  0.114114  0  0.992021  0
H  H16  1  0.27753791  0.61927477  0.68438158  1  0.124702  0  0.106405  0.113625  0  0.992244  0
H  H17  1  0.65835258  0.38055173  0.81554621  1  0.124451  0  0.106668  0.114229  0  0.992056  0
H  H18  1  0.33522232  0.57104502  0.48205305  1  0.061384  0  0.097947  0.094649  0  1.018095  0
H  H19  1  0.76355332  0.42901119  0.01784797  1  0.065901  0  0.097416  0.093914  0  1.018212  0
H  H20  1  0.66481557  0.42893816  0.51794737  1  0.061717  0  0.097965  0.094725  0  1.017857  0
H  H21  1  0.23653172  0.57101341  0.98213209  1  0.064779  0  0.097487  0.093903  0  1.018523  0
H  H22  1  0.16108522  0.10707536  0.20850601  1  0.199945  0  0.126786  0.115346  0  1.010844  0
H  H23  1  0.05354293  0.89270193  0.29152102  1  0.159291  0  0.12668  0.115763  0  1.009689  0
H  H24  1  0.83891329  0.89294919  0.79150419  1  0.200706  0  0.126823  0.115302  0  1.010794  0
H  H25  1  0.94640588  0.10727970  0.70848129  1  0.159257  0  0.126666  0.115809  0  1.009751  0
H  H26  1  0.90464161  0.10953192  0.10071745  1  0.066854  0  0.116652  0.125559  0  0.993878  0
H  H27  1  0.79470491  0.89031060  0.39938814  1  0.100313  0  0.116614  0.125256  0  0.992796  0
H  H28  1  0.09535732  0.89051217  0.89929139  1  0.066382  0  0.116668  0.125547  0  0.993684  0
H  H29  1  0.20525366  0.10967174  0.60061427  1  0.100215  0  0.11662  0.125165  0  0.992652  0
H  H30  1  0.28777454  0.89013019  0.98909930  1  0.088227  0  0.114291  0.12155  0  0.995705  0
H  H31  1  0.39747664  0.11010774  0.51070093  1  0.100649  0  0.114086  0.120945  0  0.99645  0
H  H32  1  0.71217868  0.10991640  0.01090303  1  0.087907  0  0.114191  0.121357  0  0.995691  0
H  H33  1  0.60254142  0.88986589  0.48930285  1  0.1002  0  0.114152  0.120979  0  0.996541  0
H  H34  1  0.52382694  0.89641390  0.10268505  1  0.144064  0  0.12166  0.093204  0  1.015659  0
H  H35  1  0.62716145  0.10375186  0.39703635  1  0.139575  0  0.122108  0.094247  0  1.013986  0
H  H36  1  0.47611456  0.10360927  0.89730908  1  0.143255  0  0.121627  0.093149  0  1.015464  0
H  H37  1  0.37284678  0.89621337  0.60296197  1  0.140182  0  0.122151  0.094166  0  1.014263  0
C  C38  1  0.76226781  0.19315859  0.29004018  1  1.530167  0  0.189345  0.548365  0  4.240408  0
C  C39  1  0.56929459  0.80681477  0.20987957  1  1.528468  0  0.190753  0.550537  0  4.238875  0
C  C40  1  0.23770373  0.80681603  0.70998701  1  1.530915  0  0.189589  0.548211  0  4.240108  0
C  C41  1  0.43072449  0.19319447  0.79010459  1  1.528361  0  0.190449  0.550354  0  4.238271  0
C  C42  1  0.92909938  0.27333590  0.33831101  1  0.001152  0  -0.026444  -0.043519  0  3.978206  0
C  C43  1  0.65595406  0.72676384  0.16157587  1  -0.041282  0  -0.026762  -0.043322  0  3.979266  0
C  C44  1  0.07086668  0.72663521  0.66169980  1  0.001843  0  -0.026403  -0.043088  0  3.977479  0
C  C45  1  0.34406930  0.27324649  0.83841532  1  -0.040978  0  -0.026807  -0.043461  0  3.979214  0
C  C46  1  0.13118400  0.25505985  0.37847007  1  -0.015067  0  -0.092651  -0.091167  0  4.012615  0
C  C47  1  0.87626090  0.74506623  0.12133050  1  0.013377  0  -0.092465  -0.092276  0  4.014572  0
C  C48  1  0.86879050  0.74492433  0.62153896  1  -0.049664  0  -0.092679  -0.091498  0  4.012437  0
C  C49  1  0.12375880  0.25493681  0.87866227  1  0.012381  0  -0.092336  -0.092317  0  4.014958  0
C  C50  1  0.28271859  0.32792161  0.42503174  1  -0.05652  0  -0.095466  -0.135651  0  3.979954  0
C  C51  1  0.95476746  0.67214281  0.07480901  1  -0.049177  0  -0.09625  -0.135452  0  3.979714  0
C  C52  1  0.71727057  0.67206184  0.57497771  1  -0.022135  0  -0.095382  -0.135261  0  3.979678  0
C  C53  1  0.04528016  0.32785970  0.92517998  1  -0.04899  0  -0.096158  -0.134959  0  3.98003  0
C  C54  1  0.23982462  0.42290801  0.43280669  1  -0.051424  0  -0.011312  0.110607  0  4.039852  0
C  C55  1  0.81677541  0.57713644  0.06711599  1  -0.05024  0  -0.01109  0.110514  0  4.03824  0
C  C56  1  0.76016805  0.57707870  0.56720959  1  -0.051959  0  -0.01138  0.110069  0  4.039797  0
C  C57  1  0.18325986  0.42286011  0.93286207  1  -0.049686  0  -0.011166  0.110226  0  4.038181  0
C  C58  1  0.03539306  0.44046453  0.39238983  1  -0.025632  0  -0.088595  -0.13434  0  3.960882  0
C  C59  1  0.59474656  0.55957830  0.10763290  1  -0.033624  0  -0.08864  -0.134617  0  3.96029  0
C  C60  1  0.96462234  0.55951881  0.60762172  1  -0.02532  0  -0.088489  -0.133762  0  3.960736  0
C  C61  1  0.40532237  0.44042549  0.89235945  1  -0.033251  0  -0.088537  -0.134519  0  3.960462  0
C  C62  1  0.88191219  0.36706012  0.34605163  1  -0.12425  0  -0.081715  -0.08288  0  3.978141  0
C  C63  1  0.51476996  0.63301197  0.15393412  1  -0.069278  0  -0.082033  -0.084192  0  3.978685  0
C  C64  1  0.11808416  0.63291147  0.65396402  1  -0.124047  0  -0.081734  -0.083082  0  3.978587  0
C  C65  1  0.48527571  0.36699786  0.84605277  1  -0.069697  0  -0.082095  -0.084101  0  3.978695  0
C  C66  1  0.39621540  0.50219633  0.48003040  1  -0.116928  0  -0.089976  -0.130723  0  4.000532  0
C  C67  1  0.89388002  0.49782589  0.01992630  1  -0.115365  0  -0.089147  -0.129351  0  3.996949  0
C  C68  1  0.60378611  0.49779293  0.51996351  1  -0.026026  0  -0.08999  -0.130841  0  4.000368  0
C  C69  1  0.10618771  0.50219420  0.98005734  1  -0.027494  0  -0.08918  -0.1293  0  3.996734  0
C  C70  1  0.18222506  0.06027733  0.15863328  1  0.473757  0  0.063333  0.122762  0  3.886684  0
C  C71  1  0.12144775  0.93962867  0.34134395  1  0.507964  0  0.065176  0.125054  0  3.886555  0
C  C72  1  0.81779431  0.93977003  0.84136810  1  0.472975  0  0.063301  0.122882  0  3.886463  0
C  C73  1  0.87852742  0.06034933  0.65865888  1  0.508217  0  0.065089  0.124779  0  3.886426  0
C  C74  1  0.04006847  0.06094199  0.09718270  1  -0.010317  0  -0.072096  -0.161306  0  3.904072  0
C  C75  1  0.97870010  0.93900567  0.40283614  1  -0.042098  0  -0.072259  -0.16089  0  3.904805  0
C  C76  1  0.95994854  0.93910815  0.90282068  1  -0.009212  0  -0.072057  -0.1612  0  3.904218  0
C  C77  1  0.02127532  0.06097658  0.59716837  1  -0.040981  0  -0.072134  -0.160485  0  3.90434  0
C  C78  1  0.07272722  0.00027573  0.03337005  1  -0.007037  0  0.014431  0.099867  0  3.97376  0
C  C79  1  0.07225539  0.99973645  0.46658258  1  -0.012152  0  0.014547  0.099557  0  3.97494  0
C  C80  1  0.92726138  0.99977393  0.96662850  1  0.033823  0  0.014454  0.099389  0  3.974868  0
C  C81  1  0.92773477  0.00024147  0.53342183  1  0.025166  0  0.014472  0.099447  0  3.974959  0
C  C82  1  0.25099073  0.93986908  0.03580524  1  -0.04767  0  -0.078654  -0.173457  0  3.95722  0
C  C83  1  0.31086838  0.06027907  0.46402102  1  0.01091  0  -0.078746  -0.172949  0  3.958565  0
C  C84  1  0.74902191  0.06018355  0.96419163  1  -0.049689  0  -0.078542  -0.17276  0  3.957263  0
C  C85  1  0.68909966  0.93970340  0.53597877  1  0.010657  0  -0.078897  -0.173227  0  3.95874  0
C  C86  1  0.38461739  0.94245492  0.09912662  1  0.456188  0  0.052852  0.093908  0  3.945671  0
C  C87  1  0.44182383  0.05765597  0.40067408  1  0.400181  0  0.051797  0.092407  0  3.945722  0
C  C88  1  0.61537821  0.05758622  0.90086909  1  0.457084  0  0.052911  0.093837  0  3.945491  0
C  C89  1  0.55814328  0.94231346  0.59932697  1  0.399868  0  0.051806  0.092853  0  3.94556  0
N  N90  1  0.35193410  0.00180034  0.15962399  1  -1.252793  0  -0.322025  -0.215888  0  3.557926  0
N  N91  1  0.34971221  0.99817359  0.34025647  1  -1.25246  0  -0.322673  -0.21787  0  3.55989  0
N  N92  1  0.64805284  0.99823107  0.84037876  1  -1.253096  0  -0.32199  -0.215921  0  3.558291  0
N  N93  1  0.65025851  0.00179929  0.65974773  1  -1.252643  0  -0.322559  -0.217917  0  3.559411  0
O  O94  1  0.83188720  0.10933935  0.28634662  1  -1.173022  0  -0.349599  -0.581343  0  2.351044  0
O  O95  1  0.72279056  0.89070230  0.21360553  1  -1.175135  0  -0.34962  -0.581627  0  2.351168  0
O  O96  1  0.16810113  0.89064619  0.71366419  1  -1.173083  0  -0.349652  -0.581417  0  2.351248  0
O  O97  1  0.27723314  0.10929744  0.78638093  1  -1.175145  0  -0.349534  -0.581569  0  2.350889  0
O  O98  1  0.56950875  0.20589077  0.25825507  1  -1.171862  0  -0.328903  -0.548293  0  2.11236  0
O  O99  1  0.36362168  0.79394285  0.24163718  1  -1.175441  0  -0.330103  -0.549913  0  2.110258  0
O  O100  1  0.43040338  0.79407413  0.74179343  1  -1.172466  0  -0.329142  -0.548145  0  2.112234  0
O  O101  1  0.63636789  0.20607120  0.75833710  1  -1.175366  0  -0.329943  -0.549799  0  2.110003  0
