# generated using pymatgen
data_LiH10C10NO3
_symmetry_space_group_name_H-M   'P 1'
_cell_length_a   4.96374197
_cell_length_b   7.84031334
_cell_length_c   12.85800401
_cell_angle_alpha   86.32273817
_cell_angle_beta   78.89930089
_cell_angle_gamma   71.56101419
_symmetry_Int_Tables_number   1
_chemical_formula_structural   LiH10C10NO3
_chemical_formula_sum   'Li2 H20 C20 N2 O6'
_cell_volume   465.82426964
_cell_formula_units_Z   2
loop_
 _symmetry_equiv_pos_site_id
 _symmetry_equiv_pos_as_xyz
  1  'x, y, z'
loop_
 _atom_site_type_symbol
 _atom_site_label
 _atom_site_symmetry_multiplicity
 _atom_site_fract_x
 _atom_site_fract_y
 _atom_site_fract_z
 _atom_site_occupancy
 _atom_site_pbe_bader_spin_density
 _atom_site_pbe_cm5_charge
 _atom_site_pbe_ddec_charge
 _atom_site_pbe_ddec_spin_density
 _atom_site_pbe_ddec_sum_bond_order
 _atom_site_pbe_magmom
Li  Li0  1  0.76809573  0.87828403  0.51049072  1  0  0.510521  0.798278  0  0.539724  0
Li  Li1  1  0.15693709  0.12150388  0.48949952  1  0  0.51043  0.798085  0  0.540186  0
H  H2  1  0.71665611  0.43030311  0.63203559  1  0  0.131734  0.099599  0  0.96124  0
H  H3  1  0.77821846  0.56960593  0.36788002  1  0  0.131592  0.0992  0  0.962321  0
H  H4  1  0.68718464  0.34401462  0.82767521  1  0  0.083624  0.111277  0  1.055045  0
H  H5  1  0.85690561  0.65598344  0.17221817  1  0  0.083536  0.111177  0  1.055568  0
H  H6  1  0.89675500  0.16963379  0.73706020  1  0  0.106207  0.148986  0  1.020436  0
H  H7  1  0.80260450  0.83014429  0.26287891  1  0  0.106377  0.148829  0  1.02024  0
H  H8  1  0.54613149  0.16970852  0.80262981  1  0  0.087749  0.119877  0  1.031071  0
H  H9  1  0.51711119  0.83036633  0.19742112  1  0  0.087665  0.120015  0  1.031462  0
H  H10  1  0.20199654  0.43743487  0.86166448  1  0  0.123088  0.085403  0  1.022527  0
H  H11  1  0.49914338  0.56269952  0.13843783  1  0  0.123156  0.085503  0  1.022716  0
H  H12  1  0.31559224  0.94779230  0.69858439  1  0  0.119164  0.121125  0  1.034443  0
H  H13  1  0.96056660  0.05193261  0.30134558  1  0  0.119453  0.121695  0  1.03351  0
H  H14  1  0.04160583  0.96165959  0.88217681  1  0  0.100871  0.098808  0  0.999428  0
H  H15  1  0.88285115  0.03853470  0.11768309  1  0  0.101918  0.099772  0  0.997266  0
H  H16  1  0.26867533  0.78054270  0.02669141  1  0  0.091277  0.090789  0  1.041598  0
H  H17  1  0.07245041  0.22028143  0.97334840  1  0  0.091195  0.090489  0  1.042681  0
H  H18  1  0.77820304  0.57586311  0.98436342  1  0  0.091402  0.081009  0  1.061533  0
H  H19  1  0.33578603  0.42448539  0.01572975  1  0  0.091675  0.081458  0  1.060927  0
H  H20  1  0.18115653  0.58653108  0.64700380  1  0  0.320071  0.277545  0  0.96916  0
H  H21  1  0.41449189  0.41303690  0.35299116  1  0  0.319638  0.277959  0  0.968627  0
C  C22  1  0.52751604  0.23255286  0.59430274  1  0  0.235738  0.624453  0  4.163795  0
C  C23  1  0.35383241  0.76731673  0.40573475  1  0  0.234645  0.620381  0  4.165066  0
C  C24  1  0.56095672  0.36368266  0.67314060  1  0  0.024191  0.041077  0  3.822212  0
C  C25  1  0.59683078  0.63618970  0.32685177  1  0  0.024769  0.043768  0  3.821428  0
C  C26  1  0.67711332  0.25542439  0.76681576  1  0  -0.241709  -0.411038  0  3.911215  0
C  C27  1  0.69801701  0.74449793  0.23317420  1  0  -0.241762  -0.411563  0  3.911362  0
C  C28  1  0.11782217  0.52265320  0.79740663  1  0  0.092539  0.121725  0  3.885143  0
C  C29  1  0.43618845  0.47735581  0.20267155  1  0  0.091242  0.119937  0  3.886144  0
C  C30  1  0.83599721  0.64770556  0.81859995  1  0  -0.038957  -0.10651  0  4.03579  0
C  C31  1  0.30041565  0.35235716  0.18145345  1  0  -0.038327  -0.104653  0  4.034029  0
C  C32  1  0.70871539  0.75528408  0.73400115  1  0  0.113132  0.358255  0  4.088221  0
C  C33  1  0.19636573  0.24460037  0.26597909  1  0  0.112793  0.357423  0  4.086156  0
C  C34  1  0.41646828  0.86908356  0.76179500  1  0  -0.10206  -0.233238  0  3.952724  0
C  C35  1  0.04542422  0.13087548  0.23812699  1  0  -0.101264  -0.23326  0  3.951544  0
C  C36  1  0.26586400  0.87597672  0.86426437  1  0  -0.086568  -0.042634  0  4.040588  0
C  C37  1  0.00347806  0.12423147  0.13569201  1  0  -0.087135  -0.042122  0  4.037996  0
C  C38  1  0.39310605  0.77144073  0.94645365  1  0  -0.12394  -0.15304  0  4.081717  0
C  C39  1  0.10794659  0.22911237  0.05360181  1  0  -0.123378  -0.152247  0  4.084215  0
C  C40  1  0.67407903  0.65957109  0.92305759  1  0  -0.097128  -0.113285  0  4.04842  0
C  C41  1  0.25406445  0.34078964  0.07702254  1  0  -0.097684  -0.114892  0  4.049695  0
N  N42  1  0.28381603  0.50217586  0.70381116  1  0  -0.360071  -0.173509  0  3.591124  0
N  N43  1  0.48881024  0.49764559  0.29622454  1  0  -0.359494  -0.173575  0  3.592154  0
O  O44  1  0.27533060  0.23115015  0.59319549  1  0  -0.381899  -0.639958  0  2.212469  0
O  O45  1  0.09912732  0.76886426  0.40672162  1  0  -0.381553  -0.637898  0  2.21333  0
O  O46  1  0.75859538  0.13034048  0.54053335  1  0  -0.424114  -0.715705  0  2.208107  0
O  O47  1  0.42922504  0.86933176  0.45963215  1  0  -0.42385  -0.715045  0  2.208524  0
O  O48  1  0.85187942  0.74477710  0.63828558  1  0  -0.374837  -0.589432  0  2.196254  0
O  O49  1  0.23430137  0.25465231  0.36164447  1  0  -0.375663  -0.590292  0  2.195108  0
