# generated using pymatgen
data_MnH6C6(N2O)4
_symmetry_space_group_name_H-M   'P 1'
_cell_length_a   8.41012093
_cell_length_b   8.46531527
_cell_length_c   9.67381514
_cell_angle_alpha   114.91992074
_cell_angle_beta   90.00158196
_cell_angle_gamma   119.78187109
_symmetry_Int_Tables_number   1
_chemical_formula_structural   MnH6C6(N2O)4
_chemical_formula_sum   'Mn2 H12 C12 N16 O8'
_cell_volume   522.58493623
_cell_formula_units_Z   2
loop_
 _symmetry_equiv_pos_site_id
 _symmetry_equiv_pos_as_xyz
  1  'x, y, z'
loop_
 _atom_site_type_symbol
 _atom_site_label
 _atom_site_symmetry_multiplicity
 _atom_site_fract_x
 _atom_site_fract_y
 _atom_site_fract_z
 _atom_site_occupancy
 _atom_site_hle17_ddec_charge
 _atom_site_hle17_ddec_spin_density
 _atom_site_hle17_ddec_sum_bond_order
 _atom_site_hle17_magmom
 _atom_site_hse06_10hf_ddec_charge
 _atom_site_hse06_10hf_ddec_spin_density
 _atom_site_hse06_10hf_ddec_sum_bond_order
 _atom_site_hse06_10hf_magmom
 _atom_site_hse06_ddec_charge
 _atom_site_hse06_ddec_spin_density
 _atom_site_hse06_ddec_sum_bond_order
 _atom_site_hse06_magmom
 _atom_site_pbe_cm5_charge
 _atom_site_pbe_ddec_charge
 _atom_site_pbe_ddec_spin_density
 _atom_site_pbe_ddec_sum_bond_order
 _atom_site_pbe_magmom
Mn  Mn0  1  0.95980315  0.99999877  0.24999894  1  1.152867  4.791193  1.84439  4.683  0.986716  4.712475  2.35113  4.54  1.041704  4.755835  2.282435  4.602  0.604628  0.944063  4.66779  2.401895  4.479
Mn  Mn1  1  0.04020011  0.00000433  0.75000324  1  1.152884  4.791188  1.844393  4.683  0.986729  4.712469  2.351156  4.54  1.041719  4.75583  2.282458  4.602  0.604638  0.944076  4.667782  2.401926  4.479
H  H2  1  0.37469591  0.36923600  0.65120797  1  0.130972  -0.000533  0.959136  0.0  0.130093  -0.000341  1.037573  0.0  0.133525  -0.000398  1.033566  0.0  0.150182  0.127446  -0.000276  1.040636  0.0
H  H3  1  0.00545314  0.63076821  0.84879650  1  0.13094  -0.00053  0.959154  0.0  0.130099  -0.000342  1.037583  0.0  0.13353  -0.000398  1.033578  0.0  0.150191  0.127456  -0.000276  1.040644  0.0
H  H4  1  0.62530658  0.63076554  0.34879363  1  0.130965  -0.000531  0.959118  0.0  0.130088  -0.000341  1.03756  0.0  0.13352  -0.000398  1.033554  0.0  0.15019  0.127445  -0.000276  1.040628  0.0
H  H5  1  0.99454697  0.36923334  0.15120303  1  0.130927  -0.000529  0.959157  0.0  0.130084  -0.000342  1.03759  0.0  0.133516  -0.000398  1.033584  0.0  0.15019  0.127438  -0.000276  1.040652  0.0
H  H6  1  0.51398608  0.92400570  0.83682012  1  0.132006  7e-06  0.920644  0.0  0.139021  0.00034  0.991311  0.001  0.141635  0.000157  0.989222  0.0  0.128525  0.137076  0.000543  0.992889  0.001
H  H7  1  0.58998298  0.07600179  0.66318191  1  0.13207  3e-06  0.920638  0.0  0.139054  0.00034  0.991289  0.001  0.141667  0.000158  0.989201  0.0  0.128546  0.137117  0.000544  0.992858  0.001
H  H8  1  0.48601445  0.07599429  0.16317987  1  0.132015  2e-06  0.920654  0.0  0.139026  0.00034  0.991322  0.001  0.141637  0.000158  0.989233  0.0  0.128521  0.137088  0.000543  0.992892  0.001
H  H9  1  0.41001636  0.92399820  0.33681808  1  0.132084  5e-06  0.920665  0.0  0.139053  0.00034  0.991317  0.001  0.141667  0.000158  0.989235  0.0  0.128556  0.137117  0.000544  0.992885  0.001
H  H10  1  0.58184592  0.75801054  0.70852780  1  0.131847  0.000105  0.944129  0.0  0.13553  0.00041  1.019941  0.001  0.138227  0.000226  1.018044  0.0  0.128577  0.133599  0.00059  1.021331  0.001
H  H11  1  0.82383243  0.24198545  0.79147467  1  0.131879  0.000102  0.944088  0.0  0.135521  0.000411  1.019914  0.001  0.138221  0.000226  1.01801  0.0  0.128579  0.133594  0.00059  1.021306  0.001
H  H12  1  0.41815382  0.24198789  0.29147368  1  0.131825  0.000104  0.944082  0.0  0.135499  0.000411  1.019912  0.001  0.138195  0.000226  1.018011  0.0  0.128548  0.133571  0.000591  1.021305  0.001
H  H13  1  0.17616571  0.75801454  0.20852533  1  0.131845  0.000101  0.944123  0.0  0.135496  0.000411  1.019928  0.001  0.1382  0.000226  1.018025  0.0  0.128568  0.133568  0.00059  1.02132  0.001
C  C14  1  0.33958468  0.44255665  0.75753327  1  0.16315  0.001859  3.595223  0.003  0.082455  0.003735  3.861941  0.004  0.095562  0.002843  3.872087  0.004  0.183046  0.073928  0.004701  3.855222  0.005
C  C15  1  0.89702469  0.55744872  0.74246855  1  0.163185  0.001855  3.595244  0.003  0.082383  0.003736  3.862034  0.004  0.095497  0.002842  3.872174  0.004  0.182994  0.073842  0.004698  3.855323  0.005
C  C16  1  0.66041663  0.55744490  0.24246730  1  0.163172  0.001856  3.595239  0.003  0.082443  0.003735  3.861959  0.004  0.095547  0.002841  3.872108  0.004  0.183033  0.073911  0.0047  3.855251  0.005
C  C17  1  0.10297464  0.44255128  0.25753144  1  0.163206  0.001843  3.59522  0.003  0.082403  0.003737  3.862016  0.004  0.095517  0.002842  3.872154  0.004  0.183008  0.073875  0.004698  3.855298  0.005
C  C18  1  0.55995557  0.81939218  0.82625542  1  -0.193141  0.001243  3.605979  0.001  -0.266135  0.002071  3.852636  0.002  -0.267559  0.001407  3.857998  0.001  -0.047534  -0.264849  0.002849  3.849163  0.002
C  C19  1  0.74056359  0.18061296  0.67374710  1  -0.193306  0.001261  3.606143  0.001  -0.266093  0.002072  3.852545  0.002  -0.267523  0.001405  3.857931  0.001  -0.047535  -0.264808  0.00285  3.849056  0.002
C  C20  1  0.44004299  0.18060626  0.17374193  1  -0.193195  0.001259  3.606078  0.001  -0.266164  0.002072  3.852661  0.002  -0.267576  0.001404  3.858008  0.001  -0.047509  -0.264886  0.002849  3.849204  0.002
C  C21  1  0.25943730  0.81939015  0.32625405  1  -0.193358  0.001262  3.60627  0.001  -0.266083  0.002072  3.85258  0.002  -0.267528  0.001407  3.857984  0.001  -0.047539  -0.2648  0.00285  3.84909  0.002
C  C22  1  0.74721222  0.94754120  0.95434969  1  0.698191  0.012519  3.859575  0.012  0.641291  0.020588  4.174347  0.019  0.676037  0.015473  4.167427  0.015  0.223704  0.616922  0.026029  4.178032  0.023
C  C23  1  0.79966510  0.05244776  0.54565188  1  0.697981  0.012519  3.860015  0.012  0.641107  0.020594  4.174748  0.019  0.675855  0.015477  4.167826  0.015  0.223692  0.616744  0.026038  4.178424  0.023
C  C24  1  0.25279105  0.05246191  0.04565249  1  0.698236  0.012516  3.859493  0.012  0.641308  0.02059  4.174298  0.019  0.676052  0.015474  4.167377  0.015  0.223725  0.616933  0.026032  4.177996  0.023
C  C25  1  0.20033424  0.94755223  0.45434811  1  0.698021  0.012512  3.85994  0.012  0.641111  0.020596  4.174714  0.019  0.675864  0.015478  4.167794  0.015  0.223693  0.616748  0.02604  4.178389  0.023
N  N26  1  0.21111414  0.34622357  0.82150847  1  -0.269817  0.024388  3.092996  0.012  -0.215319  0.030515  3.400347  0.014  -0.231538  0.027731  3.410103  0.012  -0.205536  -0.203796  0.032997  3.393583  0.016
N  N27  1  0.86489216  0.65378627  0.67848789  1  -0.269985  0.024387  3.093278  0.012  -0.215439  0.030517  3.40064  0.014  -0.231655  0.027732  3.410392  0.012  -0.205592  -0.203911  0.032998  3.393896  0.016
N  N28  1  0.78888442  0.65377487  0.17848888  1  -0.269809  0.024387  3.093033  0.012  -0.215301  0.030515  3.400385  0.014  -0.231518  0.027729  3.410144  0.012  -0.205547  -0.203776  0.032997  3.393612  0.016
N  N29  1  0.13510836  0.34621372  0.32151210  1  -0.26997  0.024396  3.093286  0.012  -0.215419  0.030519  3.400643  0.014  -0.231634  0.02773  3.410393  0.012  -0.205592  -0.203901  0.032998  3.39391  0.016
N  N30  1  0.20421293  0.49649182  0.94655728  1  -0.0607  0.000723  2.922707  0.002  -0.060456  0.002212  3.23455  0.003  -0.058697  0.001456  3.245035  0.003  -0.07001  -0.061612  0.003125  3.227521  0.004
N  N31  1  0.70772704  0.50352569  0.55343994  1  -0.060388  0.000746  2.922299  0.002  -0.060137  0.002209  3.234084  0.003  -0.058378  0.00146  3.244568  0.003  -0.069827  -0.0613  0.003121  3.227076  0.004
N  N32  1  0.79578522  0.50350817  0.05344272  1  -0.060693  0.000727  2.922679  0.002  -0.060452  0.002208  3.234529  0.003  -0.058695  0.001462  3.245017  0.003  -0.069995  -0.061605  0.003124  3.227487  0.004
N  N33  1  0.29227349  0.49647430  0.44655902  1  -0.060419  0.000733  2.922374  0.002  -0.060171  0.00221  3.234168  0.003  -0.058412  0.00146  3.244651  0.003  -0.06983  -0.061332  0.003121  3.227165  0.004
N  N34  1  0.32310190  0.67790360  0.95936297  1  -0.087204  0.001078  2.865287  0.001  -0.097973  0.00224  3.149153  0.002  -0.096953  0.001508  3.158888  0.002  -0.061533  -0.098361  0.00311  3.14276  0.003
N  N35  1  0.64519996  0.32210922  0.54063629  1  -0.087422  0.001069  2.865017  0.001  -0.098165  0.00224  3.14885  0.002  -0.097139  0.001512  3.158581  0.002  -0.061647  -0.098543  0.003106  3.142451  0.003
N  N36  1  0.67689469  0.32209328  0.04063483  1  -0.087182  0.001081  2.8652  0.001  -0.09797  0.002238  3.149061  0.002  -0.096953  0.001509  3.158798  0.002  -0.06154  -0.098353  0.003109  3.142664  0.003
N  N37  1  0.35479741  0.67788922  0.45936312  1  -0.087402  0.001089  2.865047  0.001  -0.098156  0.002239  3.148908  0.002  -0.097131  0.001513  3.158639  0.002  -0.061655  -0.098537  0.003106  3.142511  0.003
N  N38  1  0.40949150  0.64692134  0.84158806  1  0.063351  -9.6e-05  3.559135  0.0  0.18167  0.000785  3.744861  0.001  0.171507  0.00037  3.766269  0.0  -0.113369  0.187261  0.001262  3.732261  0.001
N  N39  1  0.76257113  0.35308737  0.65841525  1  0.063381  -0.000113  3.559296  0.0  0.181667  0.000788  3.74502  0.001  0.17148  0.000367  3.76647  0.0  -0.113378  0.187258  0.001265  3.732427  0.001
N  N40  1  0.59050665  0.35307865  0.15841193  1  0.063316  -0.000109  3.559224  0.0  0.181688  0.000788  3.744895  0.001  0.171527  0.000368  3.766292  0.0  -0.113348  0.187273  0.001262  3.732309  0.001
N  N41  1  0.23743017  0.64691418  0.34158532  1  0.063406  -0.000115  3.559257  0.0  0.181676  0.000786  3.744982  0.001  0.171491  0.000369  3.76644  0.0  -0.113372  0.187268  0.001265  3.732385  0.001
O  O42  1  0.74020427  0.93114571  0.07849437  1  -0.627378  0.034411  2.036281  0.024  -0.570566  0.043905  2.308374  0.029  -0.599283  0.038324  2.295084  0.024  -0.307754  -0.549379  0.049506  2.316612  0.035
O  O43  1  0.80905019  0.06883487  0.42150707  1  -0.627153  0.034408  2.03629  0.024  -0.570468  0.043903  2.308489  0.029  -0.599181  0.038325  2.295198  0.024  -0.307729  -0.549285  0.049507  2.316736  0.035
O  O44  1  0.25979507  0.06885429  0.92150562  1  -0.62737  0.034415  2.036251  0.024  -0.570556  0.043907  2.308372  0.029  -0.599275  0.038325  2.295084  0.024  -0.307767  -0.549365  0.049507  2.316616  0.035
O  O45  1  0.19095034  0.93116512  0.57849395  1  -0.62717  0.034407  2.036223  0.024  -0.570474  0.043906  2.308418  0.029  -0.599187  0.038325  2.295125  0.024  -0.307722  -0.549289  0.049509  2.316664  0.035
O  O46  1  0.89381981  0.06688136  0.92631174  1  -0.657744  0.028697  2.083349  0.016  -0.592976  0.037297  2.362683  0.021  -0.62332  0.03298  2.349363  0.017  -0.310619  -0.570277  0.04166  2.370751  0.024
O  O47  1  0.82693244  0.93310739  0.57370530  1  -0.657579  0.028697  2.083608  0.016  -0.592877  0.037298  2.363004  0.021  -0.623219  0.032981  2.349683  0.017  -0.310614  -0.57019  0.041672  2.371145  0.024
O  O48  1  0.10618072  0.93311863  0.07368929  1  -0.657748  0.028698  2.083284  0.016  -0.592978  0.037296  2.362638  0.021  -0.623322  0.032981  2.34932  0.017  -0.310624  -0.570268  0.04166  2.370698  0.024
O  O49  1  0.17306689  0.06689260  0.42629469  1  -0.65759  0.028704  2.083621  0.016  -0.592882  0.037298  2.363036  0.021  -0.623224  0.03298  2.349715  0.017  -0.310616  -0.570193  0.041672  2.371171  0.024
