# generated using pymatgen
data_CdH8C8(SN2)2
_symmetry_space_group_name_H-M   'P 1'
_cell_length_a   7.74059880
_cell_length_b   8.07484850
_cell_length_c   9.51163990
_cell_angle_alpha   90.00010260
_cell_angle_beta   90.00019488
_cell_angle_gamma   115.91843406
_symmetry_Int_Tables_number   1
_chemical_formula_structural   CdH8C8(SN2)2
_chemical_formula_sum   'Cd2 H16 C16 S4 N8'
_cell_volume   534.71889250
_cell_formula_units_Z   2
loop_
 _symmetry_equiv_pos_site_id
 _symmetry_equiv_pos_as_xyz
  1  'x, y, z'
loop_
 _atom_site_type_symbol
 _atom_site_label
 _atom_site_symmetry_multiplicity
 _atom_site_fract_x
 _atom_site_fract_y
 _atom_site_fract_z
 _atom_site_occupancy
 _atom_site_hle17_bader_spin_density
 _atom_site_hle17_ddec_charge
 _atom_site_hle17_ddec_spin_density
 _atom_site_hle17_ddec_sum_bond_order
 _atom_site_hle17_magmom
 _atom_site_hse06_10hf_bader_spin_density
 _atom_site_hse06_10hf_ddec_charge
 _atom_site_hse06_10hf_ddec_spin_density
 _atom_site_hse06_10hf_ddec_sum_bond_order
 _atom_site_hse06_10hf_magmom
 _atom_site_hse06_bader_spin_density
 _atom_site_hse06_ddec_charge
 _atom_site_hse06_ddec_spin_density
 _atom_site_hse06_ddec_sum_bond_order
 _atom_site_hse06_magmom
 _atom_site_pbe_bader_spin_density
 _atom_site_pbe_cm5_charge
 _atom_site_pbe_ddec_charge
 _atom_site_pbe_ddec_spin_density
 _atom_site_pbe_ddec_sum_bond_order
 _atom_site_pbe_magmom
Cd  Cd0  1  0.99999871  0.99999887  0.00000347  1  0  0.955705  0  1.943444  0  0  0.774989  0  2.402931  0  0  0.822218  0  2.364758  0  0  0.715506  0.740512  0  2.431023  0
Cd  Cd1  1  0.00000152  0.50000425  0.50000462  1  0  0.95571  0  1.9434  0  0  0.774992  0  2.402882  0  0  0.82222  0  2.364711  0  0  0.715503  0.740515  0  2.430984  0
H  H2  1  0.77899718  0.20869162  0.13017227  1  0  0.090174  0  0.976289  0  0  0.095432  0  1.044764  0  0  0.096934  0  1.045207  0  0  0.111888  0.094285  0  1.044693  0
H  H3  1  0.22100340  0.29130800  0.63017263  1  0  0.09018  0  0.976305  0  0  0.095411  0  1.044799  0  0  0.096912  0  1.045243  0  0  0.111893  0.094287  0  1.044708  0
H  H4  1  0.22100316  0.79130347  0.86982573  1  0  0.090202  0  0.976235  0  0  0.095398  0  1.044753  0  0  0.096911  0  1.045188  0  0  0.111922  0.094238  0  1.044696  0
H  H5  1  0.77899492  0.70868840  0.36982957  1  0  0.090174  0  0.976372  0  0  0.095428  0  1.044849  0  0  0.09693  0  1.045293  0  0  0.111876  0.094271  0  1.044787  0
H  H6  1  0.68900091  0.83622761  0.74109781  1  0  0.13624  0  0.966759  0  0  0.153759  0  1.030296  0  0  0.155246  0  1.030472  0  0  0.091707  0.152503  0  1.030527  0
H  H7  1  0.31099848  0.66377461  0.24110556  1  0  0.13625  0  0.966685  0  0  0.153776  0  1.030204  0  0  0.155262  0  1.030382  0  0  0.091712  0.15252  0  1.03043  0
H  H8  1  0.31099610  0.16376875  0.25889493  1  0  0.136233  0  0.966707  0  0  0.153759  0  1.030236  0  0  0.155246  0  1.03041  0  0  0.091714  0.152501  0  1.030459  0
H  H9  1  0.68900127  0.33621911  0.75889454  1  0  0.136221  0  0.966743  0  0  0.153759  0  1.030253  0  0  0.155247  0  1.030426  0  0  0.091701  0.152504  0  1.030481  0
H  H10  1  0.43365568  0.72743249  0.71629093  1  0  0.117036  0  0.972016  0  0  0.132626  0  1.042689  0  0  0.133294  0  1.044502  0  0  0.08826  0.132151  0  1.041311  0
H  H11  1  0.56634343  0.77257233  0.21629745  1  0  0.116964  0  0.972029  0  0  0.132585  0  1.042677  0  0  0.133253  0  1.044489  0  0  0.088248  0.132112  0  1.041297  0
H  H12  1  0.56634049  0.27256793  0.28370497  1  0  0.116966  0  0.972018  0  0  0.132593  0  1.04266  0  0  0.13326  0  1.04447  0  0  0.088248  0.132116  0  1.041285  0
H  H13  1  0.43365632  0.22742139  0.78370370  1  0  0.11701  0  0.971991  0  0  0.13262  0  1.042638  0  0  0.13329  0  1.044453  0  0  0.088254  0.132147  0  1.04126  0
H  H14  1  0.54053234  0.63974572  0.84267299  1  0  0.122367  0  0.96274  0  0  0.142337  0  1.028339  0  0  0.143207  0  1.028943  0  0  0.086241  0.141611  0  1.028084  0
H  H15  1  0.45946651  0.86025421  0.34268252  1  0  0.122388  0  0.962726  0  0  0.142347  0  1.028342  0  0  0.143217  0  1.028943  0  0  0.086233  0.141618  0  1.028087  0
H  H16  1  0.45946277  0.36024923  0.15731870  1  0  0.122345  0  0.962741  0  0  0.142331  0  1.028329  0  0  0.143201  0  1.028931  0  0  0.086212  0.141602  0  1.028072  0
H  H17  1  0.54053193  0.13973947  0.65731758  1  0  0.122368  0  0.962803  0  0  0.142336  0  1.028408  0  0  0.143206  0  1.02901  0  0  0.086233  0.141612  0  1.028147  0
C  C18  1  0.91241660  0.58463884  0.16215253  1  0  0.308516  0  3.99155  0  0  0.284232  0  4.298781  0  0  0.307024  0  4.311637  0  0  0.154672  0.268472  0  4.289963  0
C  C19  1  0.08758620  0.91537808  0.66215589  1  0  0.308481  0  3.991398  0  0  0.284206  0  4.298593  0  0  0.306994  0  4.311447  0  0  0.154704  0.26845  0  4.289785  0
C  C20  1  0.08759621  0.41537020  0.83784862  1  0  0.308523  0  3.991582  0  0  0.284237  0  4.298788  0  0  0.307029  0  4.31164  0  0  0.154683  0.268475  0  4.289985  0
C  C21  1  0.91241032  0.08462914  0.33784632  1  0  0.30856  0  3.991863  0  0  0.284275  0  4.299067  0  0  0.307063  0  4.311919  0  0  0.154704  0.268522  0  4.290245  0
C  C22  1  0.52657298  0.88844660  0.90272592  1  0  0.276397  0  3.696234  0  0  0.287185  0  3.938168  0  0  0.292373  0  3.957884  0  0  0.129313  0.283442  0  3.924889  0
C  C23  1  0.47342815  0.61155502  0.40273192  1  0  0.276315  0  3.696322  0  0  0.287167  0  3.93819  0  0  0.292354  0  3.957906  0  0  0.129319  0.283434  0  3.924899  0
C  C24  1  0.47342914  0.11155263  0.09726998  1  0  0.276288  0  3.696162  0  0  0.287125  0  3.938074  0  0  0.29231  0  3.957784  0  0  0.129309  0.283388  0  3.924792  0
C  C25  1  0.52657279  0.38844145  0.59727029  1  0  0.276299  0  3.696306  0  0  0.287075  0  3.938292  0  0  0.292258  0  3.958009  0  0  0.129249  0.28334  0  3.925012  0
C  C26  1  0.65317499  0.11491275  0.07155121  1  0  0.031337  0  3.657098  0  0  -0.002026  0  3.907365  0  0  -1.5e-05  0  3.926057  0  0  0.049172  -0.003388  0  3.894926  0
C  C27  1  0.34682344  0.38508248  0.57155418  1  0  0.031333  0  3.656943  0  0  -0.002018  0  3.907293  0  0  -7e-06  0  3.92599  0  0  0.049178  -0.003398  0  3.894844  0
C  C28  1  0.34682725  0.88508376  0.92844573  1  0  0.031263  0  3.657144  0  0  -0.001999  0  3.907386  0  0  1.1e-05  0  3.926051  0  0  0.049136  -0.003354  0  3.894964  0
C  C29  1  0.65317298  0.61491251  0.42844697  1  0  0.031246  0  3.657154  0  0  -0.002109  0  3.907377  0  0  -9e-05  0  3.926047  0  0  0.04914  -0.003471  0  3.894955  0
C  C30  1  0.54961439  0.76690077  0.79382664  1  0  -0.38597  0  3.698737  0  0  -0.467719  0  3.929854  0  0  -0.471178  0  3.9391  0  0  -0.251284  -0.465209  0  3.923929  0
C  C31  1  0.45038592  0.73310306  0.29383383  1  0  -0.385918  0  3.698637  0  0  -0.467712  0  3.929754  0  0  -0.471168  0  3.939  0  0  -0.251268  -0.465206  0  3.923825  0
C  C32  1  0.45038380  0.23309834  0.20616715  1  0  -0.385833  0  3.69862  0  0  -0.467636  0  3.92972  0  0  -0.47109  0  3.938961  0  0  -0.251235  -0.465131  0  3.923791  0
C  C33  1  0.54961442  0.26689203  0.70616627  1  0  -0.385936  0  3.698772  0  0  -0.467696  0  3.929859  0  0  -0.471155  0  3.939104  0  0  -0.251253  -0.465197  0  3.923935  0
S  S34  1  0.82098298  0.62743099  0.02044922  1  0  -0.309891  0  2.177483  0  0  -0.273268  0  2.513685  0  0  -0.291771  0  2.508478  0  0  -0.123339  -0.259272  0  2.517106  0
S  S35  1  0.17901405  0.87257699  0.52045486  1  0  -0.309929  0  2.177471  0  0  -0.27332  0  2.513703  0  0  -0.291824  0  2.508496  0  0  -0.123363  -0.259318  0  2.517121  0
S  S36  1  0.17903222  0.37256861  0.97955088  1  0  -0.309917  0  2.177449  0  0  -0.273308  0  2.513686  0  0  -0.291812  0  2.508475  0  0  -0.123355  -0.259301  0  2.517102  0
S  S37  1  0.82097306  0.12743541  0.47954840  1  0  -0.309976  0  2.177399  0  0  -0.273353  0  2.513612  0  0  -0.29186  0  2.508405  0  0  -0.123384  -0.259354  0  2.517031  0
N  N38  1  0.68000085  0.00514336  0.97725828  1  0  -0.320296  0  3.167122  0  0  -0.255499  0  3.417506  0  0  -0.27033  0  3.435753  0  0  -0.302973  -0.244875  0  3.404776  0
N  N39  1  0.32000252  0.49485923  0.47726240  1  0  -0.320212  0  3.167096  0  0  -0.255404  0  3.417423  0  0  -0.270237  0  3.435673  0  0  -0.302936  -0.244778  0  3.404689  0
N  N40  1  0.31999818  0.99485170  0.02273866  1  0  -0.320245  0  3.16715  0  0  -0.255468  0  3.417486  0  0  -0.270297  0  3.435738  0  0  -0.302935  -0.244839  0  3.404736  0
N  N41  1  0.67999782  0.50513586  0.52274086  1  0  -0.320193  0  3.167048  0  0  -0.255379  0  3.417414  0  0  -0.270208  0  3.435664  0  0  -0.302882  -0.24476  0  3.404692  0
N  N42  1  0.97412233  0.54431313  0.26363140  1  0  -0.543743  0  2.91088  0  0  -0.484569  0  3.190698  0  0  -0.505911  0  3.196605  0  0  -0.391436  -0.46999  0  3.187497  0
N  N43  1  0.02588668  0.95571121  0.76362835  1  0  -0.543663  0  2.910762  0  0  -0.484484  0  3.190556  0  0  -0.505823  0  3.196458  0  0  -0.39145  -0.469913  0  3.187368  0
N  N44  1  0.02589475  0.45570283  0.73637816  1  0  -0.543693  0  2.910904  0  0  -0.484511  0  3.190698  0  0  -0.505851  0  3.196601  0  0  -0.391425  -0.46994  0  3.187517  0
N  N45  1  0.97410781  0.04429732  0.23638227  1  0  -0.543674  0  2.911297  0  0  -0.484502  0  3.191103  0  0  -0.505841  0  3.197005  0  0  -0.391411  -0.469933  0  3.187902  0
