# generated using pymatgen
data_Zn2H18C12N2Cl2O7
_symmetry_space_group_name_H-M   'P 1'
_cell_length_a   8.10360313
_cell_length_b   10.95627859
_cell_length_c   13.57379792
_cell_angle_alpha   106.25698154
_cell_angle_beta   89.76805116
_cell_angle_gamma   110.74007811
_symmetry_Int_Tables_number   1
_chemical_formula_structural   Zn2H18C12N2Cl2O7
_chemical_formula_sum   'Zn4 H36 C24 N4 Cl4 O14'
_cell_volume   1075.90580212
_cell_formula_units_Z   2
loop_
 _symmetry_equiv_pos_site_id
 _symmetry_equiv_pos_as_xyz
  1  'x, y, z'
loop_
 _atom_site_type_symbol
 _atom_site_label
 _atom_site_symmetry_multiplicity
 _atom_site_fract_x
 _atom_site_fract_y
 _atom_site_fract_z
 _atom_site_occupancy
 _atom_site_pbe_bader_charge
 _atom_site_pbe_bader_spin_density
 _atom_site_pbe_cm5_charge
 _atom_site_pbe_ddec_charge
 _atom_site_pbe_ddec_spin_density
 _atom_site_pbe_ddec_sum_bond_order
 _atom_site_pbe_magmom
Zn  Zn0  1  0.51311990  0.65663926  0.51012903  1  1.33667  0  0.655664  0.951082  0  2.217937  0
Zn  Zn1  1  0.09797780  0.35110744  0.46127716  1  1.30933  0  0.665207  0.951113  0  2.287866  0
Zn  Zn2  1  0.48684050  0.34334777  0.48985397  1  1.336448  0  0.655647  0.951052  0  2.218117  0
Zn  Zn3  1  0.90196447  0.64887682  0.53867672  1  1.309411  0  0.665177  0.951134  0  2.28748  0
H  H4  1  0.35892254  0.43734747  0.36197872  1  0.60376  0  0.304166  0.39764  0  0.898177  0
H  H5  1  0.79454255  0.04860165  0.41627706  1  0.454733  0  0.287862  0.284204  0  0.995008  0
H  H6  1  0.67827581  0.95311529  0.48995334  1  0.477521  0  0.289651  0.290364  0  1.005407  0
H  H7  1  0.24770045  0.69350313  0.43536268  1  0.462387  0  0.296049  0.290429  0  0.965686  0
H  H8  1  0.38682123  0.84929560  0.49601676  1  0.482629  0  0.28499  0.273028  0  1.009609  0
H  H9  1  0.21188735  0.59567120  0.25754820  1  0.046189  0  0.09247  0.096478  0  1.02676  0
H  H10  1  0.30819327  0.61709424  0.08625547  1  0.038617  0  0.071516  0.06694  0  1.098771  0
H  H11  1  0.73311445  0.99617043  0.23994936  1  0.034461  0  0.095822  0.106054  0  1.027752  0
H  H12  1  0.09270742  0.94570086  0.21867284  1  0.057181  0  0.098707  0.153504  0  0.979274  0
H  H13  1  0.93028107  0.89403757  0.30098417  1  0.038947  0  0.09671  0.151299  0  1.030191  0
H  H14  1  0.14725381  0.88791804  0.31942494  1  0.072283  0  0.097187  0.159394  0  1.007274  0
H  H15  1  0.72404945  0.25813914  0.18270567  1  0.071254  0  0.087563  0.142457  0  1.02921  0
H  H16  1  0.89679071  0.22450350  0.24009521  1  0.055763  0  0.095843  0.156758  0  1.018995  0
H  H17  1  0.93270123  0.39270656  0.23628946  1  0.059023  0  0.09305  0.14792  0  1.026825  0
H  H18  1  0.28437667  0.33460928  0.80201815  1  0.083793  0  0.095138  0.155764  0  1.026437  0
H  H19  1  0.08316213  0.36921661  0.79874100  1  0.068014  0  0.083157  0.131863  0  1.050024  0
H  H20  1  0.29667920  0.50279484  0.81686960  1  0.091662  0  0.099038  0.158604  0  0.984561  0
H  H21  1  0.56807960  0.81936718  0.07771330  1  0.044511  0  0.075592  0.070626  0  1.065459  0
H  H22  1  0.64105345  0.56263930  0.63800008  1  0.603804  0  0.304091  0.39762  0  0.898167  0
H  H23  1  0.20552999  0.95145731  0.58384380  1  0.455658  0  0.287625  0.284104  0  0.995188  0
H  H24  1  0.32172255  0.04692255  0.51013540  1  0.477709  0  0.289304  0.289782  0  1.00607  0
H  H25  1  0.75230433  0.30654871  0.56464041  1  0.462169  0  0.296027  0.290365  0  0.965767  0
H  H26  1  0.61318742  0.15074564  0.50402793  1  0.483362  0  0.285017  0.273069  0  1.009297  0
H  H27  1  0.78817285  0.40446013  0.74245061  1  0.045661  0  0.092249  0.096207  0  1.026828  0
H  H28  1  0.69196786  0.38309119  0.91376993  1  0.038953  0  0.07144  0.06677  0  1.098994  0
H  H29  1  0.26706002  0.00395032  0.76017489  1  0.034749  0  0.095597  0.105836  0  1.027787  0
H  H30  1  0.90741808  0.05424036  0.78138731  1  0.057681  0  0.098808  0.153585  0  0.979451  0
H  H31  1  0.06971962  0.10593777  0.69902265  1  0.038841  0  0.096693  0.151247  0  1.03024  0
H  H32  1  0.85272034  0.11205061  0.68068816  1  0.067697  0  0.097061  0.159337  0  1.007293  0
H  H33  1  0.27576602  0.74162945  0.81722058  1  0.072176  0  0.087647  0.142578  0  1.029126  0
H  H34  1  0.10318114  0.77545105  0.75985140  1  0.05814  0  0.095883  0.156939  0  1.018817  0
H  H35  1  0.06704404  0.60718640  0.76357344  1  0.058364  0  0.093155  0.148062  0  1.026499  0
H  H36  1  0.71548489  0.66529011  0.19793447  1  0.083784  0  0.095112  0.155796  0  1.026442  0
H  H37  1  0.91671406  0.63070667  0.20120606  1  0.068377  0  0.083052  0.131759  0  1.050406  0
H  H38  1  0.70320905  0.49711515  0.18310804  1  0.090459  0  0.099025  0.15847  0  0.984425  0
H  H39  1  0.43214524  0.18081207  0.92237698  1  0.044931  0  0.075635  0.070643  0  1.065315  0
C  C40  1  0.57181837  0.89324612  0.33967787  1  0.379188  0  0.084588  0.200911  0  4.031497  0
C  C41  1  0.42230725  0.77925317  0.34398655  1  0.290751  0  0.072364  0.178267  0  3.990734  0
C  C42  1  0.32730668  0.68272197  0.25250135  1  0.000759  0  -0.109507  -0.178049  0  4.027159  0
C  C43  1  0.37975665  0.69531283  0.15671838  1  -0.059863  0  -0.127222  -0.125708  0  4.126422  0
C  C44  1  0.52559566  0.80849184  0.15203692  1  -0.03319  0  -0.121202  -0.104557  0  4.132126  0
C  C45  1  0.61856652  0.90738466  0.24266296  1  -0.036975  0  -0.112867  -0.198754  0  4.015163  0
C  C46  1  0.13794693  0.09104545  0.36719706  1  1.564946  0  0.220032  0.701084  0  4.107497  0
C  C47  1  0.07286135  0.94492653  0.29881466  1  -0.061591  0  -0.244649  -0.51638  0  3.865931  0
C  C48  1  0.76511688  0.33152507  0.34892891  1  1.555633  0  0.222444  0.717614  0  4.066221  0
C  C49  1  0.83251265  0.29858471  0.24469246  1  -0.081207  0  -0.253874  -0.551345  0  3.912095  0
C  C50  1  0.22375694  0.37244427  0.66238337  1  1.546751  0  0.216518  0.707141  0  4.099011  0
C  C51  1  0.21865039  0.39463060  0.77712872  1  -0.125544  0  -0.253644  -0.535459  0  3.896381  0
C  C52  1  0.42826310  0.10685070  0.66040142  1  0.380984  0  0.084237  0.200578  0  4.031421  0
C  C53  1  0.57774314  0.22084645  0.65605549  1  0.289674  0  0.072368  0.178523  0  3.990513  0
C  C54  1  0.67277867  0.31740479  0.74752216  1  0.00125  0  -0.109177  -0.178151  0  4.027261  0
C  C55  1  0.62039076  0.30484420  0.84332157  1  -0.061868  0  -0.127021  -0.125016  0  4.126404  0
C  C56  1  0.47458946  0.19166344  0.84804090  1  -0.033913  0  -0.121629  -0.105114  0  4.13233  0
C  C57  1  0.38158785  0.09273747  0.75743419  1  -0.037547  0  -0.112336  -0.198202  0  4.014767  0
C  C58  1  0.86205515  0.90893197  0.63282727  1  1.565412  0  0.220419  0.701165  0  4.106674  0
C  C59  1  0.92715710  0.05503664  0.70124113  1  -0.057608  0  -0.24483  -0.516496  0  3.866096  0
C  C60  1  0.23477109  0.66838494  0.65099898  1  1.556651  0  0.222165  0.717861  0  4.065993  0
C  C61  1  0.16734323  0.70129422  0.75522234  1  -0.08502  0  -0.254207  -0.552021  0  3.911849  0
C  C62  1  0.77617160  0.62751234  0.33758073  1  1.546906  0  0.216741  0.707359  0  4.099403  0
C  C63  1  0.78123310  0.60528737  0.22283060  1  -0.125241  0  -0.253435  -0.535162  0  3.896586  0
N  N64  1  0.67098042  0.99140035  0.42989196  1  -1.232957  0  -0.600205  -0.592677  0  3.304988  0
N  N65  1  0.37683074  0.75824633  0.44116723  1  -1.227846  0  -0.602153  -0.593649  0  3.408048  0
N  N66  1  0.32907114  0.00866736  0.57020663  1  -1.232583  0  -0.59942  -0.591808  0  3.304843  0
N  N67  1  0.62317630  0.24181086  0.55885765  1  -1.228336  0  -0.602274  -0.593771  0  3.407988  0
Cl  Cl68  1  0.39247123  0.00308943  0.03481394  1  -0.005548  0  0.052119  0.028475  0  1.456974  0
Cl  Cl69  1  0.00374588  0.58148454  0.97917281  1  -0.005287  0  0.074159  0.042286  0  1.499845  0
Cl  Cl70  1  0.60748386  0.99655758  0.96483777  1  -0.00483  0  0.051791  0.02822  0  1.456836  0
Cl  Cl71  1  0.99647051  0.41863809  0.02084913  1  -0.008402  0  0.074433  0.042657  0  1.499716  0
O  O72  1  0.33820392  0.44856070  0.43419898  1  -1.216634  0  -0.561204  -0.858349  0  2.261735  0
O  O73  1  0.03070897  0.15523575  0.37127010  1  -1.19965  0  -0.327414  -0.597513  0  2.324611  0
O  O74  1  0.29133768  0.14212907  0.41562182  1  -1.197244  0  -0.307652  -0.57021  0  2.320616  0
O  O75  1  0.87235769  0.37119761  0.43126787  1  -1.197891  0  -0.328322  -0.599728  0  2.380746  0
O  O76  1  0.60519563  0.32191352  0.35230654  1  -1.163541  0  -0.310074  -0.536476  0  2.235868  0
O  O77  1  0.08175959  0.35409244  0.60816087  1  -1.179822  0  -0.331512  -0.577163  0  2.258087  0
O  O78  1  0.36877712  0.37576484  0.62715280  1  -1.200532  0  -0.315984  -0.575245  0  2.367529  0
O  O79  1  0.66175597  0.55142800  0.56577831  1  -1.216926  0  -0.561082  -0.85827  0  2.261831  0
O  O80  1  0.96930951  0.84474343  0.62869993  1  -1.200185  0  -0.32736  -0.597359  0  2.324183  0
O  O81  1  0.70864577  0.85785991  0.58442688  1  -1.196972  0  -0.30792  -0.570383  0  2.320339  0
O  O82  1  0.12754821  0.62870470  0.56864959  1  -1.198147  0  -0.327945  -0.599575  0  2.380408  0
O  O83  1  0.39470478  0.67803304  0.64764143  1  -1.162951  0  -0.31006  -0.536621  0  2.235687  0
O  O84  1  0.91817426  0.64584711  0.39178820  1  -1.180058  0  -0.331539  -0.577246  0  2.258674  0
O  O85  1  0.63118002  0.62424359  0.37283342  1  -1.200095  0  -0.316284  -0.575561  0  2.36735  0
