# generated using pymatgen
data_ZnH19C20NO8
_symmetry_space_group_name_H-M   'P 1'
_cell_length_a   9.50096102
_cell_length_b   10.77413748
_cell_length_c   16.13759504
_cell_angle_alpha   87.71272132
_cell_angle_beta   91.21773192
_cell_angle_gamma   92.32049372
_symmetry_Int_Tables_number   1
_chemical_formula_structural   ZnH19C20NO8
_chemical_formula_sum   'Zn2 H38 C40 N2 O16'
_cell_volume   1648.93077152
_cell_formula_units_Z   2
loop_
 _symmetry_equiv_pos_site_id
 _symmetry_equiv_pos_as_xyz
  1  'x, y, z'
loop_
 _atom_site_type_symbol
 _atom_site_label
 _atom_site_symmetry_multiplicity
 _atom_site_fract_x
 _atom_site_fract_y
 _atom_site_fract_z
 _atom_site_occupancy
 _atom_site_pbe_bader_charge
 _atom_site_pbe_bader_spin_density
 _atom_site_pbe_cm5_charge
 _atom_site_pbe_ddec_charge
 _atom_site_pbe_ddec_spin_density
 _atom_site_pbe_ddec_sum_bond_order
 _atom_site_pbe_magmom
Zn  Zn0  1  0.64655817  0.49979093  0.50529587  1  1.281979  0  0.673011  0.823334  0  2.426566  0
Zn  Zn1  1  0.35347461  0.50019575  0.49470798  1  1.280456  0  0.672962  0.823322  0  2.426844  0
H  H2  1  0.31124729  0.62321793  0.05219899  1  0.058093  0  0.101141  0.105707  0  0.989791  0
H  H3  1  0.68874386  0.37678785  0.94780000  1  0.058184  0  0.101167  0.105758  0  0.989734  0
H  H4  1  0.75656449  0.96615545  0.50696469  1  0.072204  0  0.093966  0.100843  0  1.040457  0
H  H5  1  0.24345408  0.03384381  0.49304757  1  0.072381  0  0.093946  0.100752  0  1.040685  0
H  H6  1  0.90177929  0.62606964  0.60457542  1  0.135804  0  0.126822  0.1243  0  0.957373  0
H  H7  1  0.09823926  0.37393840  0.39542185  1  0.135493  0  0.126804  0.124304  0  0.957395  0
H  H8  1  0.87763805  0.55222098  0.37005885  1  0.15236  0  0.126441  0.130341  0  0.969063  0
H  H9  1  0.12239331  0.44778694  0.62994840  1  0.151644  0  0.126454  0.130511  0  0.968845  0
H  H10  1  0.54099702  0.81690544  0.97612187  1  0.030419  0  0.09268  0.126893  0  0.994793  0
H  H11  1  0.59523734  0.75925101  0.88006989  1  0.044715  0  0.091177  0.121775  0  1.013253  0
H  H12  1  0.41343655  0.77142497  0.89959909  1  0.046407  0  0.093037  0.127682  0  0.995756  0
H  H13  1  0.45901104  0.18309465  0.02388970  1  0.030531  0  0.092729  0.126977  0  0.994753  0
H  H14  1  0.58655598  0.22858810  0.10040601  1  0.046218  0  0.093126  0.127815  0  0.995752  0
H  H15  1  0.40476768  0.24076049  0.11993035  1  0.04459  0  0.091239  0.121865  0  1.013195  0
H  H16  1  0.12519088  0.45076187  0.04483688  1  0.035247  0  0.094904  0.086451  0  1.00713  0
H  H17  1  0.18143735  0.29392418  0.05547424  1  0.03995  0  0.09476  0.089748  0  1.003092  0
H  H18  1  0.04996918  0.33423219  0.97889112  1  0.053998  0  0.104523  0.106126  0  0.980429  0
H  H19  1  0.81857071  0.70608171  0.94452857  1  0.040016  0  0.094758  0.089807  0  1.00308  0
H  H20  1  0.87480435  0.54923639  0.95516721  1  0.035328  0  0.094903  0.086508  0  1.00715  0
H  H21  1  0.95003449  0.66576132  0.02112114  1  0.053593  0  0.1045  0.106068  0  0.980533  0
H  H22  1  0.78089550  0.99783160  0.66308466  1  0.033203  0  0.088331  0.076769  0  1.020207  0
H  H23  1  0.62611211  0.94829763  0.71886306  1  0.056142  0  0.095239  0.092065  0  1.003326  0
H  H24  1  0.72342072  0.08842922  0.74593458  1  0.055862  0  0.104848  0.107737  0  0.976281  0
H  H25  1  0.37391708  0.05170552  0.28114798  1  0.056031  0  0.095291  0.092137  0  1.003065  0
H  H26  1  0.21911832  0.00219342  0.33693248  1  0.033434  0  0.088321  0.07677  0  1.020175  0
H  H27  1  0.27659077  0.91158504  0.25406938  1  0.056421  0  0.104875  0.107684  0  0.97627  0
H  H28  1  0.65359817  0.98144437  0.29195454  1  0.060125  0  0.096653  0.094685  0  0.997346  0
H  H29  1  0.80149529  0.03080973  0.35537815  1  0.050973  0  0.090001  0.08212  0  1.012671  0
H  H30  1  0.74554313  0.12763516  0.26885725  1  0.051433  0  0.103439  0.104955  0  0.982446  0
H  H31  1  0.19852783  0.96920363  0.64463022  1  0.051209  0  0.089968  0.082104  0  1.01272  0
H  H32  1  0.34643413  0.01855889  0.70805403  1  0.060093  0  0.096634  0.094692  0  0.997453  0
H  H33  1  0.25448135  0.87238357  0.73115911  1  0.051451  0  0.103445  0.105026  0  0.982521  0
H  H34  1  0.93284854  0.83435382  0.50815384  1  0.036827  0  0.096088  0.090717  0  1.022903  0
H  H35  1  0.91025789  0.79863838  0.40153112  1  0.062525  0  0.102716  0.104773  0  0.989576  0
H  H36  1  0.04562474  0.91080139  0.43165881  1  0.039027  0  0.102595  0.1011  0  1.018741  0
H  H37  1  0.08976521  0.20135236  0.59845527  1  0.062728  0  0.102638  0.104546  0  0.989567  0
H  H38  1  0.06712501  0.16563152  0.49183729  1  0.036795  0  0.096069  0.090661  0  1.022838  0
H  H39  1  0.95436019  0.08920998  0.56833697  1  0.038797  0  0.102607  0.101007  0  1.018766  0
C  C40  1  0.54138957  0.74027633  0.49882277  1  1.601943  0  0.215123  0.621761  0  4.162446  0
C  C41  1  0.45864466  0.25972044  0.50118652  1  1.602226  0  0.215092  0.621718  0  4.162444  0
C  C42  1  0.55605254  0.04837844  0.57034505  1  0.570813  0  0.08422  0.17456  0  3.720107  0
C  C43  1  0.44395122  0.95162075  0.42966342  1  0.570743  0  0.084283  0.17449  0  3.720395  0
C  C44  1  0.47330279  0.12275671  0.50060657  1  -0.023054  0  -0.014039  -0.118189  0  3.691288  0
C  C45  1  0.52670625  0.87724056  0.49940628  1  -0.023158  0  -0.014058  -0.118025  0  3.691064  0
C  C46  1  0.56287185  0.06003722  0.43423935  1  0.565616  0  0.083276  0.174321  0  3.718921  0
C  C47  1  0.43713594  0.93995356  0.56577235  1  0.565554  0  0.083308  0.174291  0  3.718286  0
C  C48  1  0.03670412  0.61748632  0.48020149  1  0.882762  0  0.187612  0.309398  0  3.740749  0
C  C49  1  0.96331055  0.38252795  0.51980372  1  0.882719  0  0.187512  0.308947  0  3.740932  0
C  C50  1  0.95295038  0.57184922  0.55898246  1  0.157127  0  0.016915  -0.03763  0  3.567073  0
C  C51  1  0.04707573  0.42816153  0.44102101  1  0.157211  0  0.016947  -0.037497  0  3.567229  0
C  C52  1  0.93974893  0.53050591  0.42610397  1  0.163398  0  0.017211  -0.039716  0  3.553741  0
C  C53  1  0.06028363  0.46950666  0.57390385  1  0.164938  0  0.017261  -0.039779  0  3.553451  0
C  C54  1  0.50580517  0.50329905  0.33749149  1  1.657378  0  0.217338  0.672363  0  4.24553  0
C  C55  1  0.49425301  0.49665928  0.66250796  1  1.657905  0  0.217423  0.67262  0  4.245188  0
C  C56  1  0.50931201  0.61944246  0.96648519  1  0.006326  0  -0.001742  0.090694  0  3.640199  0
C  C57  1  0.49069068  0.38055965  0.03351764  1  0.00631  0  -0.001814  0.090668  0  3.640439  0
C  C58  1  0.39411146  0.56786705  0.02798745  1  -0.052884  0  -0.082964  -0.192406  0  3.650744  0
C  C59  1  0.60588273  0.43213119  0.97201725  1  -0.052897  0  -0.082879  -0.192443  0  3.65074  0
C  C60  1  0.51111928  0.50380175  0.24804376  1  0.131875  0  -0.056064  -0.203477  0  3.99863  0
C  C61  1  0.48891339  0.49618120  0.75196014  1  0.131801  0  -0.05622  -0.203806  0  3.99924  0
C  C62  1  0.62601053  0.55355443  0.02258152  1  0.587783  0  0.088294  0.185497  0  3.714531  0
C  C63  1  0.37398812  0.44645318  0.97742183  1  0.587988  0  0.088461  0.18569  0  3.71456  0
C  C64  1  0.50924513  0.50389993  0.08500884  1  0.160894  0  0.000702  0.045262  0  3.824749  0
C  C65  1  0.49075639  0.49609943  0.91499217  1  0.1604  0  0.00061  0.045119  0  3.824267  0
C  C66  1  0.51374955  0.50488526  0.17253263  1  -0.487723  0  -0.044667  -0.044571  0  4.115754  0
C  C67  1  0.48626634  0.49510998  0.82745551  1  -0.487103  0  -0.044547  -0.044243  0  4.115926  0
C  C68  1  0.64387223  0.98261091  0.50391942  1  -0.088229  0  -0.100911  -0.220252  0  3.669184  0
C  C69  1  0.35613686  0.01738728  0.49609405  1  -0.08819  0  -0.100819  -0.219916  0  3.668975  0
C  C70  1  0.51557460  0.74860520  0.92856753  1  -0.066685  0  -0.236818  -0.400507  0  4.000593  0
C  C71  1  0.48442618  0.25140338  0.07143582  1  -0.066402  0  -0.237009  -0.400811  0  4.000811  0
C  C72  1  0.14659961  0.36700915  0.01084815  1  0.401991  0  -0.138257  -0.163454  0  3.948386  0
C  C73  1  0.85340312  0.63299290  0.98915716  1  0.402217  0  -0.138231  -0.163521  0  3.948552  0
C  C74  1  0.68806673  0.03016309  0.69476894  1  0.379444  0  -0.139172  -0.164982  0  3.948538  0
C  C75  1  0.31193961  0.96985190  0.30523993  1  0.378557  0  -0.139249  -0.164986  0  3.948221  0
C  C76  1  0.70948319  0.06262708  0.31869462  1  0.375912  0  -0.139465  -0.166619  0  3.947771  0
C  C77  1  0.29053463  0.93738238  0.68131812  1  0.375449  0  -0.139447  -0.166708  0  3.947849  0
C  C78  1  0.98855585  0.82399647  0.44985944  1  0.421724  0  -0.136134  -0.177243  0  3.914367  0
C  C79  1  0.01143943  0.17600850  0.55013712  1  0.421652  0  -0.13602  -0.176705  0  3.914151  0
N  N80  1  0.85940081  0.48648648  0.50465203  1  -0.850357  0  -0.307184  -0.206064  0  3.072788  0
N  N81  1  0.14062444  0.51352980  0.49535259  1  -0.850382  0  -0.307091  -0.206088  0  3.072792  0
O  O82  1  0.66347000  0.69552105  0.50216141  1  -1.157331  0  -0.321992  -0.554279  0  2.266883  0
O  O83  1  0.33652382  0.30446318  0.49784597  1  -1.15698  0  -0.322109  -0.554458  0  2.265763  0
O  O84  1  0.42436263  0.67906842  0.49522397  1  -1.163819  0  -0.311486  -0.543558  0  2.380996  0
O  O85  1  0.57563566  0.32092615  0.50478081  1  -1.164323  0  -0.311444  -0.543427  0  2.382029  0
O  O86  1  0.62324313  0.51456024  0.37651510  1  -1.157425  0  -0.311897  -0.55159  0  2.283596  0
O  O87  1  0.37678926  0.48541635  0.62348393  1  -1.157251  0  -0.311863  -0.55168  0  2.283141  0
O  O88  1  0.38375376  0.49176800  0.36879953  1  -1.149153  0  -0.317914  -0.544934  0  2.255617  0
O  O89  1  0.61629561  0.50820473  0.63121268  1  -1.149861  0  -0.317871  -0.544972  0  2.256076  0
O  O90  1  0.24866930  0.39408456  0.94784722  1  -1.067405  0  -0.216623  -0.206186  0  2.520445  0
O  O91  1  0.75133053  0.60592481  0.05216045  1  -1.067272  0  -0.216529  -0.206075  0  2.520292  0
O  O92  1  0.60550386  0.10724772  0.64018046  1  -1.055929  0  -0.208279  -0.1814  0  2.525065  0
O  O93  1  0.39450214  0.89276002  0.35982169  1  -1.055712  0  -0.208297  -0.181447  0  2.525145  0
O  O94  1  0.61894358  0.13035814  0.36863161  1  -1.068716  0  -0.209595  -0.184158  0  2.526011  0
O  O95  1  0.38107188  0.86963810  0.63138812  1  -1.068477  0  -0.209656  -0.184234  0  2.525661  0
O  O96  1  0.09362796  0.73188258  0.46039212  1  -1.073238  0  -0.188023  -0.170889  0  2.51728  0
O  O97  1  0.90637424  0.26813517  0.53961607  1  -1.073393  0  -0.188014  -0.170905  0  2.517343  0
