# generated using pymatgen
data_Sn3P2H12C6NO8
_symmetry_space_group_name_H-M   'P 1'
_cell_length_a   6.73585699
_cell_length_b   10.70719009
_cell_length_c   11.27981386
_cell_angle_alpha   86.88550777
_cell_angle_beta   82.42647998
_cell_angle_gamma   72.55304058
_symmetry_Int_Tables_number   1
_chemical_formula_structural   Sn3P2H12C6NO8
_chemical_formula_sum   'Sn6 P4 H24 C12 N2 O16'
_cell_volume   769.23298414
_cell_formula_units_Z   2
loop_
 _symmetry_equiv_pos_site_id
 _symmetry_equiv_pos_as_xyz
  1  'x, y, z'
loop_
 _atom_site_type_symbol
 _atom_site_label
 _atom_site_symmetry_multiplicity
 _atom_site_fract_x
 _atom_site_fract_y
 _atom_site_fract_z
 _atom_site_occupancy
 _atom_site_hle17_bader_spin_density
 _atom_site_hle17_ddec_charge
 _atom_site_hle17_ddec_spin_density
 _atom_site_hle17_ddec_sum_bond_order
 _atom_site_hle17_magmom
 _atom_site_hse06_10hf_bader_spin_density
 _atom_site_hse06_10hf_ddec_charge
 _atom_site_hse06_10hf_ddec_spin_density
 _atom_site_hse06_10hf_ddec_sum_bond_order
 _atom_site_hse06_10hf_magmom
 _atom_site_hse06_bader_spin_density
 _atom_site_hse06_ddec_charge
 _atom_site_hse06_ddec_spin_density
 _atom_site_hse06_ddec_sum_bond_order
 _atom_site_hse06_magmom
 _atom_site_pbe_bader_spin_density
 _atom_site_pbe_cm5_charge
 _atom_site_pbe_ddec_charge
 _atom_site_pbe_ddec_spin_density
 _atom_site_pbe_ddec_sum_bond_order
 _atom_site_pbe_magmom
Sn  Sn0  1  0.91645021  0.81331765  0.32761801  1  0  1.073735  0  2.098316  0  0  0.913332  0  2.523297  0  0  0.951906  0  2.495024  0  0  0.526755  0.886975  0  2.542413  0
Sn  Sn1  1  0.08358634  0.18666487  0.67237776  1  0  1.073794  0  2.098498  0  0  0.913481  0  2.523347  0  0  0.952068  0  2.495073  0  0  0.526729  0.887098  0  2.542461  0
Sn  Sn2  1  0.66544719  0.91899638  0.62348371  1  0  1.096556  0  2.038277  0  0  0.935038  0  2.454242  0  0  0.970923  0  2.429798  0  0  0.524807  0.909261  0  2.471484  0
Sn  Sn3  1  0.33456803  0.08102831  0.37650875  1  0  1.0966  0  2.038429  0  0  0.934986  0  2.454508  0  0  0.970881  0  2.430066  0  0  0.524816  0.909128  0  2.471885  0
Sn  Sn4  1  0.67732659  0.60089576  0.53003553  1  0  1.05628  0  2.05032  0  0  0.896644  0  2.474342  0  0  0.932287  0  2.449476  0  0  0.531033  0.871547  0  2.491278  0
Sn  Sn5  1  0.32267572  0.39911446  0.46995065  1  0  1.056384  0  2.050183  0  0  0.896829  0  2.474172  0  0  0.932472  0  2.449323  0  0  0.531094  0.871724  0  2.49111  0
P  P6  1  0.20659778  0.83475590  0.54865334  1  0  1.743962  0  4.874632  0  0  1.549611  0  5.387964  0  0  1.610453  0  5.332236  0  0  0.430392  1.507485  0  5.426  0
P  P7  1  0.79342349  0.16523727  0.45135046  1  0  1.743836  0  4.874683  0  0  1.549356  0  5.388456  0  0  1.610183  0  5.332753  0  0  0.430403  1.507249  0  5.426439  0
P  P8  1  0.90336888  0.50674854  0.77164597  1  0  1.41257  0  4.950934  0  0  1.265159  0  5.443531  0  0  1.316489  0  5.404044  0  0  0.331232  1.229537  0  5.469468  0
P  P9  1  0.09661963  0.49323857  0.22837337  1  0  1.412684  0  4.951237  0  0  1.26528  0  5.44382  0  0  1.316604  0  5.40433  0  0  0.331221  1.229663  0  5.46974  0
H  H10  1  0.04439646  0.75574953  0.76509642  1  0  0.278282  0  0.886689  0  0  0.262128  0  0.941874  0  0  0.269471  0  0.93704  0  0  0.314497  0.256899  0  0.945416  0
H  H11  1  0.95559572  0.24425750  0.23490408  1  0  0.278101  0  0.88674  0  0  0.262017  0  0.941855  0  0  0.26936  0  0.937021  0  0  0.314442  0.256792  0  0.945394  0
H  H12  1  0.24553241  0.54508274  0.72978520  1  0  0.122042  0  0.954926  0  0  0.128485  0  1.027356  0  0  0.130298  0  1.027686  0  0  0.118236  0.127387  0  1.026896  0
H  H13  1  0.75447544  0.45490969  0.27020917  1  0  0.121983  0  0.955017  0  0  0.128427  0  1.027442  0  0  0.130255  0  1.027757  0  0  0.118217  0.12732  0  1.026994  0
H  H14  1  0.19479568  0.49717673  0.88298902  1  0  0.140516  0  0.917703  0  0  0.158208  0  0.967436  0  0  0.160842  0  0.966352  0  0  0.126028  0.156421  0  0.968249  0
H  H15  1  0.80518966  0.50282922  0.11701744  1  0  0.14053  0  0.917671  0  0  0.158221  0  0.967417  0  0  0.160856  0  0.966335  0  0  0.126062  0.156442  0  0.968225  0
H  H16  1  0.75898094  0.71801148  0.90540029  1  0  0.086985  0  0.940709  0  0  0.101528  0  1.000277  0  0  0.102698  0  0.999936  0  0  0.115884  0.100603  0  1.00063  0
H  H17  1  0.24101206  0.28199365  0.09459755  1  0  0.086921  0  0.940795  0  0  0.101501  0  1.000343  0  0  0.102663  0  1.000002  0  0  0.115857  0.100577  0  1.000693  0
H  H18  1  0.93532635  0.68172588  0.01676527  1  0  0.093129  0  0.938408  0  0  0.10718  0  1.00017  0  0  0.108485  0  1.000046  0  0  0.114775  0.105985  0  1.000602  0
H  H19  1  0.06466637  0.31827340  0.98323194  1  0  0.093056  0  0.938529  0  0  0.107141  0  1.000271  0  0  0.108449  0  1.000131  0  0  0.114764  0.105945  0  1.000704  0
H  H20  1  0.36139006  0.88133691  0.93572116  1  0  0.075852  0  0.937419  0  0  0.09914  0  0.992078  0  0  0.099462  0  0.993057  0  0  0.096298  0.098852  0  0.99141  0
H  H21  1  0.63860272  0.11866233  0.06427782  1  0  0.075809  0  0.937436  0  0  0.099068  0  0.992111  0  0  0.09939  0  0.993092  0  0  0.096274  0.098782  0  0.991438  0
H  H22  1  0.20344094  0.92109226  0.81821354  1  0  0.054914  0  0.992847  0  0  0.060683  0  1.082172  0  0  0.060256  0  1.085363  0  0  0.087195  0.060264  0  1.081159  0
H  H23  1  0.79656050  0.07891088  0.18178453  1  0  0.054978  0  0.992776  0  0  0.060738  0  1.082082  0  0  0.060308  0  1.085279  0  0  0.087234  0.06032  0  1.081064  0
H  H24  1  0.05965668  0.88013570  0.08274699  1  0  0.013018  0  0.988296  0  0  0.023583  0  1.061879  0  0  0.022266  0  1.065526  0  0  0.083106  0.024985  0  1.058357  0
H  H25  1  0.94034503  0.11986356  0.91724943  1  0  0.013117  0  0.988219  0  0  0.02364  0  1.061808  0  0  0.022337  0  1.065471  0  0  0.083131  0.025039  0  1.058288  0
H  H26  1  0.78405244  0.94368051  0.87939544  1  0  0.056876  0  0.961691  0  0  0.068774  0  1.039125  0  0  0.069246  0  1.040007  0  0  0.087555  0.068792  0  1.037715  0
H  H27  1  0.21594265  0.05632055  0.12060947  1  0  0.056866  0  0.961585  0  0  0.068744  0  1.039099  0  0  0.069186  0  1.04001  0  0  0.087541  0.06878  0  1.037668  0
H  H28  1  0.70770538  0.91205477  0.03121004  1  0  0.071401  0  0.943614  0  0  0.090024  0  1.006825  0  0  0.09062  0  1.007581  0  0  0.09557  0.088992  0  1.007388  0
H  H29  1  0.29229470  0.08794529  0.96879536  1  0  0.071348  0  0.943666  0  0  0.090001  0  1.006894  0  0  0.090595  0  1.007651  0  0  0.095583  0.088958  0  1.007469  0
H  H30  1  0.29065817  0.66433683  0.96854338  1  0  0.112032  0  0.927705  0  0  0.127866  0  0.982  0  0  0.129751  0  0.980892  0  0  0.115858  0.12635  0  0.982939  0
H  H31  1  0.70933441  0.33566625  0.03145901  1  0  0.111925  0  0.92781  0  0  0.127823  0  0.982025  0  0  0.129707  0  0.980916  0  0  0.11588  0.126308  0  0.982966  0
H  H32  1  0.39777903  0.68538160  0.81716872  1  0  0.106982  0  0.937896  0  0  0.114095  0  1.004759  0  0  0.116041  0  1.003518  0  0  0.113827  0.112513  0  1.005916  0
H  H33  1  0.60222809  0.31461869  0.18282363  1  0  0.106927  0  0.93807  0  0  0.114052  0  1.004908  0  0  0.115996  0  1.003663  0  0  0.113846  0.112473  0  1.006062  0
C  C34  1  0.12679656  0.55818790  0.80836874  1  0  -0.322083  0  3.504776  0  0  -0.363852  0  3.751201  0  0  -0.368518  0  3.756971  0  0  -0.068816  -0.360913  0  3.747681  0
C  C35  1  0.87321133  0.44182098  0.19163385  1  0  -0.32195  0  3.50479  0  0  -0.363745  0  3.751247  0  0  -0.368429  0  3.757009  0  0  -0.068748  -0.360818  0  3.74776  0
C  C36  1  0.89074077  0.74143336  0.93677350  1  0  -0.013559  0  3.527423  0  0  -0.069375  0  3.777937  0  0  -0.066509  0  3.788725  0  0  -0.062591  -0.071386  0  3.771175  0
C  C37  1  0.10925403  0.25856787  0.06322345  1  0  -0.013505  0  3.527349  0  0  -0.069369  0  3.777939  0  0  -0.066474  0  3.788682  0  0  -0.062587  -0.071377  0  3.77117  0
C  C38  1  0.22120403  0.86812720  0.90456925  1  0  -0.155309  0  3.671729  0  0  -0.203485  0  3.928225  0  0  -0.204944  0  3.942545  0  0  -0.164429  -0.202189  0  3.918694  0
C  C39  1  0.77879025  0.13187204  0.09542960  1  0  -0.155292  0  3.672233  0  0  -0.203422  0  3.928582  0  0  -0.204846  0  3.942882  0  0  -0.164359  -0.202129  0  3.919065  0
C  C40  1  0.02617299  0.92537542  0.99421711  1  0  0.00142  0  3.620449  0  0  0.004899  0  3.844522  0  0  0.003857  0  3.86277  0  0  -0.089597  0.005242  0  3.832394  0
C  C41  1  0.97379407  0.07462774  0.00578665  1  0  0.001291  0  3.620625  0  0  0.004907  0  3.844597  0  0  0.003765  0  3.862959  0  0  -0.089605  0.00525  0  3.832465  0
C  C42  1  0.83992688  0.88697949  0.95949455  1  0  -0.153582  0  3.680919  0  0  -0.201208  0  3.939136  0  0  -0.202451  0  3.952744  0  0  -0.161635  -0.200251  0  3.930163  0
C  C43  1  0.16005705  0.11301296  0.04050370  1  0  -0.153396  0  3.680464  0  0  -0.201176  0  3.938923  0  0  -0.202386  0  3.952557  0  0  -0.161638  -0.200214  0  3.92994  0
C  C44  1  0.26434637  0.72256222  0.88565719  1  0  -0.015854  0  3.487463  0  0  -0.068788  0  3.735162  0  0  -0.065712  0  3.744285  0  0  -0.065709  -0.070588  0  3.729097  0
C  C45  1  0.73564027  0.27743039  0.11433284  1  0  -0.015746  0  3.487599  0  0  -0.068741  0  3.735251  0  0  -0.06565  0  3.744364  0  0  -0.065876  -0.07055  0  3.729196  0
N  N46  1  0.07643645  0.69797160  0.84290854  1  0  -0.04939  0  3.3546  0  0  0.035711  0  3.561421  0  0  0.023943  0  3.580756  0  0  -0.34485  0.043709  0  3.54823  0
N  N47  1  0.92356037  0.30203162  0.15708639  1  0  -0.049262  0  3.354169  0  0  0.035864  0  3.560872  0  0  0.02409  0  3.580198  0  0  -0.344702  0.043874  0  3.547678  0
O  O48  1  0.17875012  0.79713591  0.42285660  1  0  -0.861633  0  2.013769  0  0  -0.756476  0  2.278798  0  0  -0.7832  0  2.256444  0  0  -0.342086  -0.738631  0  2.294706  0
O  O49  1  0.82125620  0.20285426  0.57715307  1  0  -0.861602  0  2.013672  0  0  -0.75646  0  2.278748  0  0  -0.783162  0  2.256378  0  0  -0.342094  -0.738623  0  2.294655  0
O  O50  1  0.76568482  0.62711611  0.70466834  1  0  -0.80431  0  2.014704  0  0  -0.70343  0  2.272553  0  0  -0.72993  0  2.254875  0  0  -0.338236  -0.684533  0  2.284342  0
O  O51  1  0.23433044  0.37288982  0.29533372  1  0  -0.804163  0  2.015004  0  0  -0.703321  0  2.272921  0  0  -0.7298  0  2.255216  0  0  -0.338131  -0.684411  0  2.284706  0
O  O52  1  0.37131954  0.72378870  0.60628283  1  0  -0.864139  0  2.057789  0  0  -0.758415  0  2.323512  0  0  -0.786725  0  2.304843  0  0  -0.339545  -0.738547  0  2.335481  0
O  O53  1  0.62868630  0.27619946  0.39372962  1  0  -0.864317  0  2.057963  0  0  -0.758582  0  2.323624  0  0  -0.786964  0  2.305108  0  0  -0.339596  -0.73871  0  2.335591  0
O  O54  1  0.73320740  0.78235838  0.48580157  1  0  -0.882934  0  1.893781  0  0  -0.743888  0  2.150328  0  0  -0.776347  0  2.136444  0  0  -0.43792  -0.721075  0  2.158612  0
O  O55  1  0.26677935  0.21764089  0.51419705  1  0  -0.882905  0  1.894009  0  0  -0.743865  0  2.150535  0  0  -0.77632  0  2.136657  0  0  -0.437919  -0.72105  0  2.158824  0
O  O56  1  0.27826306  0.96221664  0.53642312  1  0  -0.904352  0  2.130114  0  0  -0.781401  0  2.383963  0  0  -0.811478  0  2.365171  0  0  -0.322714  -0.760134  0  2.396032  0
O  O57  1  0.72171965  0.03778840  0.46358095  1  0  -0.904185  0  2.130144  0  0  -0.781293  0  2.384216  0  0  -0.811259  0  2.365187  0  0  -0.322735  -0.76003  0  2.396278  0
O  O58  1  0.00327963  0.86311716  0.63918885  1  0  -0.871706  0  2.04088  0  0  -0.764359  0  2.297289  0  0  -0.791562  0  2.276917  0  0  -0.344271  -0.745572  0  2.311441  0
O  O59  1  0.99674844  0.13688456  0.36082554  1  0  -0.871643  0  2.040898  0  0  -0.764258  0  2.297346  0  0  -0.791465  0  2.276991  0  0  -0.344266  -0.745466  0  2.311484  0
O  O60  1  0.01109372  0.39920386  0.67585620  1  0  -0.867386  0  2.162931  0  0  -0.755925  0  2.421367  0  0  -0.786001  0  2.406194  0  0  -0.337636  -0.734194  0  2.43059  0
O  O61  1  0.98891803  0.60079262  0.32413058  1  0  -0.867181  0  2.163244  0  0  -0.755692  0  2.421644  0  0  -0.785751  0  2.406464  0  0  -0.33758  -0.734038  0  2.43107  0
O  O62  1  0.79523752  0.46243700  0.88338627  1  0  -0.830475  0  1.841674  0  0  -0.771636  0  2.081224  0  0  -0.796105  0  2.063398  0  0  -0.393032  -0.753868  0  2.092238  0
O  O63  1  0.20477003  0.53755632  0.11661252  1  0  -0.830842  0  1.841117  0  0  -0.771999  0  2.080671  0  0  -0.79647  0  2.06284  0  0  -0.393241  -0.754221  0  2.091679  0
