# generated using pymatgen
data_MgH22(C5O)2
_symmetry_space_group_name_H-M   'P 1'
_cell_length_a   7.33864123
_cell_length_b   7.73892414
_cell_length_c   12.13544138
_cell_angle_alpha   104.63889772
_cell_angle_beta   90.00544277
_cell_angle_gamma   118.30732685
_symmetry_Int_Tables_number   1
_chemical_formula_structural   MgH22(C5O)2
_chemical_formula_sum   'Mg2 H44 C20 O4'
_cell_volume   581.24601438
_cell_formula_units_Z   2
loop_
 _symmetry_equiv_pos_site_id
 _symmetry_equiv_pos_as_xyz
  1  'x, y, z'
loop_
 _atom_site_type_symbol
 _atom_site_label
 _atom_site_symmetry_multiplicity
 _atom_site_fract_x
 _atom_site_fract_y
 _atom_site_fract_z
 _atom_site_occupancy
 _atom_site_hle17_bader_spin_density
 _atom_site_hle17_ddec_charge
 _atom_site_hle17_ddec_spin_density
 _atom_site_hle17_ddec_sum_bond_order
 _atom_site_hle17_magmom
 _atom_site_hse06_10hf_bader_spin_density
 _atom_site_hse06_10hf_ddec_charge
 _atom_site_hse06_10hf_ddec_spin_density
 _atom_site_hse06_10hf_ddec_sum_bond_order
 _atom_site_hse06_10hf_magmom
 _atom_site_hse06_bader_spin_density
 _atom_site_hse06_ddec_charge
 _atom_site_hse06_ddec_spin_density
 _atom_site_hse06_ddec_sum_bond_order
 _atom_site_hse06_magmom
 _atom_site_pbe_bader_spin_density
 _atom_site_pbe_cm5_charge
 _atom_site_pbe_ddec_charge
 _atom_site_pbe_ddec_spin_density
 _atom_site_pbe_ddec_sum_bond_order
 _atom_site_pbe_magmom
Mg  Mg0  1  0.28521091  0.00001301  0.74996093  1  0  1.040377  0  1.493119  0  0  0.936408  0  1.732983  0  0  0.953661  0  1.714119  0  0  0.609814  0.924424  0  1.745756  0
Mg  Mg1  1  0.71478871  0.99998724  0.25004164  1  0  1.040343  0  1.493191  0  0  0.936387  0  1.733027  0  0  0.95365  0  1.714152  0  0  0.609824  0.924415  0  1.745769  0
H  H2  1  0.43442239  0.42336890  0.84353641  1  0  0.041861  0  1.05582  0  0  0.054017  0  1.129015  0  0  0.054659  0  1.13084  0  0  0.049043  0.053561  0  1.12766  0
H  H3  1  0.01085212  0.57665848  0.65628467  1  0  0.04164  0  1.055335  0  0  0.053796  0  1.128776  0  0  0.054462  0  1.130543  0  0  0.048769  0.053332  0  1.127442  0
H  H4  1  0.56556951  0.57662678  0.15645965  1  0  0.041781  0  1.055901  0  0  0.053979  0  1.129029  0  0  0.054624  0  1.130851  0  0  0.049014  0.053522  0  1.127675  0
H  H5  1  0.98915203  0.42333718  0.34371633  1  0  0.041585  0  1.055317  0  0  0.053728  0  1.128787  0  0  0.054392  0  1.130556  0  0  0.048758  0.053262  0  1.127455  0
H  H6  1  0.15195083  0.25582879  0.95676268  1  0  0.068291  0  0.987386  0  0  0.092069  0  1.05329  0  0  0.092498  0  1.054352  0  0  0.073028  0.091722  0  1.052567  0
H  H7  1  0.89642386  0.74464711  0.54312574  1  0  0.068013  0  0.987736  0  0  0.091967  0  1.05343  0  0  0.092388  0  1.054479  0  0  0.072895  0.091609  0  1.05274  0
H  H8  1  0.84805017  0.74417148  0.04323578  1  0  0.068306  0  0.987443  0  0  0.092092  0  1.053325  0  0  0.092521  0  1.054385  0  0  0.073039  0.091747  0  1.052601  0
H  H9  1  0.10359016  0.25535468  0.45687544  1  0  0.068072  0  0.987823  0  0  0.092027  0  1.053489  0  0  0.092449  0  1.054539  0  0  0.072918  0.091668  0  1.052801  0
H  H10  1  0.96278680  0.13240996  0.83260925  1  0  0.063802  0  0.97481  0  0  0.088488  0  1.037954  0  0  0.089102  0  1.03859  0  0  0.071944  0.088004  0  1.037548  0
H  H11  1  0.83063115  0.86798831  0.66726043  1  0  0.063747  0  0.974051  0  0  0.088346  0  1.037272  0  0  0.088948  0  1.037919  0  0  0.071977  0.087872  0  1.036858  0
H  H12  1  0.03720662  0.86758876  0.16739142  1  0  0.063814  0  0.974871  0  0  0.088499  0  1.038004  0  0  0.08911  0  1.038644  0  0  0.071965  0.088017  0  1.037598  0
H  H13  1  0.16937939  0.13201196  0.33273968  1  0  0.063756  0  0.974067  0  0  0.088374  0  1.037259  0  0  0.088981  0  1.037901  0  0  0.071966  0.087899  0  1.036847  0
H  H14  1  0.08370874  0.40070672  0.89030088  1  0  0.048933  0  0.981941  0  0  0.072846  0  1.051795  0  0  0.073125  0  1.052864  0  0  0.061556  0.072624  0  1.051072  0
H  H15  1  0.68307024  0.59970110  0.60942785  1  0  0.048463  0  0.980838  0  0  0.072345  0  1.050939  0  0  0.072621  0  1.05199  0  0  0.061369  0.072135  0  1.050213  0
H  H16  1  0.91628680  0.59929353  0.10970087  1  0  0.048958  0  0.981916  0  0  0.072871  0  1.051774  0  0  0.073148  0  1.052842  0  0  0.061578  0.072648  0  1.051055  0
H  H17  1  0.31693971  0.40030071  0.39057004  1  0  0.048552  0  0.980839  0  0  0.072374  0  1.050999  0  0  0.072651  0  1.052051  0  0  0.061365  0.072158  0  1.05028  0
H  H18  1  0.37029165  0.37127601  0.63595083  1  0  0.06237  0  0.995251  0  0  0.083926  0  1.066909  0  0  0.084815  0  1.066998  0  0  0.070032  0.083231  0  1.066924  0
H  H19  1  0.99864463  0.62845772  0.86382034  1  0  0.062607  0  0.995851  0  0  0.084032  0  1.067427  0  0  0.084951  0  1.0675  0  0  0.070377  0.08332  0  1.067453  0
H  H20  1  0.62970178  0.62872274  0.36404656  1  0  0.06238  0  0.995205  0  0  0.083921  0  1.066893  0  0  0.084809  0  1.066984  0  0  0.070032  0.083225  0  1.066907  0
H  H21  1  0.00135406  0.37153793  0.13618149  1  0  0.062612  0  0.995922  0  0  0.084014  0  1.06751  0  0  0.084931  0  1.067587  0  0  0.070366  0.083302  0  1.067537  0
H  H22  1  0.19468335  0.45117588  0.69828598  1  0  0.056099  0  0.984647  0  0  0.080036  0  1.052648  0  0  0.080903  0  1.052946  0  0  0.064412  0.079349  0  1.05251  0
H  H23  1  0.74318546  0.54876238  0.80141451  1  0  0.055918  0  0.983506  0  0  0.079691  0  1.051904  0  0  0.080611  0  1.052166  0  0  0.064341  0.078999  0  1.051771  0
H  H24  1  0.80531297  0.54882594  0.30171191  1  0  0.056004  0  0.984699  0  0  0.079979  0  1.05266  0  0  0.080848  0  1.052957  0  0  0.064383  0.079293  0  1.052525  0
H  H25  1  0.25681536  0.45123481  0.19858592  1  0  0.055909  0  0.983533  0  0  0.079687  0  1.051915  0  0  0.080609  0  1.052176  0  0  0.064328  0.078994  0  1.051786  0
H  H26  1  0.10416625  0.19062594  0.62685278  1  0  0.057193  0  0.983638  0  0  0.080481  0  1.052308  0  0  0.081159  0  1.052478  0  0  0.070709  0.07995  0  1.052243  0
H  H27  1  0.91332469  0.80921642  0.87300069  1  0  0.057227  0  0.983447  0  0  0.080556  0  1.051927  0  0  0.081251  0  1.052087  0  0  0.070783  0.080028  0  1.05186  0
H  H28  1  0.89582539  0.80937742  0.37314371  1  0  0.057202  0  0.983587  0  0  0.080512  0  1.052238  0  0  0.081192  0  1.052404  0  0  0.070703  0.079981  0  1.052171  0
H  H29  1  0.08667810  0.19077924  0.12700031  1  0  0.057231  0  0.983427  0  0  0.080569  0  1.051896  0  0  0.081264  0  1.052057  0  0  0.070794  0.080039  0  1.051829  0
H  H30  1  0.24899193  0.68602470  0.53789786  1  0  0.089687  0  0.930309  0  0  0.102705  0  0.992969  0  0  0.103183  0  0.992978  0  0  0.120932  0.102217  0  0.993161  0
H  H31  1  0.56299545  0.31400652  0.96213903  1  0  0.089319  0  0.930418  0  0  0.102584  0  0.993072  0  0  0.103098  0  0.992998  0  0  0.120821  0.102089  0  0.993261  0
H  H32  1  0.75100174  0.31396637  0.46210157  1  0  0.089642  0  0.930326  0  0  0.102698  0  0.99293  0  0  0.103178  0  0.992939  0  0  0.120896  0.102209  0  0.993122  0
H  H33  1  0.43701151  0.68600293  0.03786340  1  0  0.089374  0  0.930356  0  0  0.102598  0  0.993041  0  0  0.103115  0  0.992969  0  0  0.120821  0.102106  0  0.993227  0
H  H34  1  0.51569479  0.76094378  0.51767916  1  0  0.068163  0  0.942074  0  0  0.078321  0  1.013134  0  0  0.079002  0  1.012403  0  0  0.108289  0.077684  0  1.013869  0
H  H35  1  0.75472659  0.23891379  0.98218203  1  0  0.067705  0  0.940664  0  0  0.078248  0  1.011813  0  0  0.07894  0  1.011069  0  0  0.108278  0.07761  0  1.012536  0
H  H36  1  0.48429982  0.23905189  0.48232020  1  0  0.068186  0  0.942045  0  0  0.078326  0  1.013124  0  0  0.079011  0  1.012393  0  0  0.108276  0.077688  0  1.013859  0
H  H37  1  0.24528190  0.76109874  0.01781925  1  0  0.067707  0  0.94061  0  0  0.078244  0  1.011761  0  0  0.078928  0  1.011034  0  0  0.108282  0.07761  0  1.012483  0
H  H38  1  0.68103337  0.29459173  0.66633135  1  0  0.093717  0  0.933945  0  0  0.108655  0  0.993582  0  0  0.109043  0  0.993746  0  0  0.122026  0.108228  0  0.993647  0
H  H39  1  0.38593417  0.70534628  0.83365773  1  0  0.093114  0  0.934572  0  0  0.108414  0  0.993862  0  0  0.108791  0  0.994009  0  0  0.121868  0.108009  0  0.993956  0
H  H40  1  0.31895698  0.70540088  0.33366751  1  0  0.093722  0  0.934006  0  0  0.108645  0  0.99364  0  0  0.10903  0  0.993804  0  0  0.122012  0.10822  0  0.993705  0
H  H41  1  0.61407321  0.29465858  0.16634230  1  0  0.093153  0  0.934673  0  0  0.108398  0  0.994001  0  0  0.108775  0  0.994149  0  0  0.121853  0.107988  0  0.994089  0
H  H42  1  0.77352448  0.12471841  0.59449078  1  0  0.06963  0  0.928314  0  0  0.081086  0  0.995415  0  0  0.082029  0  0.994271  0  0  0.1092  0.08027  0  0.996405  0
H  H43  1  0.64849241  0.87522229  0.90531311  1  0  0.068911  0  0.927656  0  0  0.080697  0  0.994633  0  0  0.081627  0  0.993487  0  0  0.109137  0.079892  0  0.995687  0
H  H44  1  0.22646799  0.87527570  0.40551162  1  0  0.069684  0  0.928207  0  0  0.08114  0  0.995296  0  0  0.082078  0  0.994149  0  0  0.109228  0.080328  0  0.996282  0
H  H45  1  0.35151497  0.12478257  0.09468774  1  0  0.068958  0  0.927545  0  0  0.080694  0  0.994551  0  0  0.081631  0  0.993404  0  0  0.109134  0.07988  0  0.995605  0
C  C46  1  0.28560421  0.28910572  0.79620977  1  0  -0.525769  0  3.764093  0  0  -0.48995  0  4.025448  0  0  -0.502386  0  4.047544  0  0  -0.313388  -0.480821  0  4.009425  0
C  C47  1  0.99640605  0.71098257  0.70365723  1  0  -0.525197  0  3.763362  0  0  -0.489532  0  4.024815  0  0  -0.501972  0  4.046908  0  0  -0.312913  -0.480402  0  4.008795  0
C  C48  1  0.71438708  0.71089149  0.20378737  1  0  -0.525621  0  3.76416  0  0  -0.489813  0  4.025478  0  0  -0.502255  0  4.047578  0  0  -0.313329  -0.480683  0  4.009454  0
C  C49  1  0.00359809  0.28901309  0.29634377  1  0  -0.525046  0  3.763278  0  0  -0.48937  0  4.024706  0  0  -0.501811  0  4.046807  0  0  -0.312883  -0.480242  0  4.008683  0
C  C50  1  0.11461761  0.26937154  0.87258719  1  0  -0.234239  0  3.846262  0  0  -0.305022  0  4.081849  0  0  -0.306317  0  4.098369  0  0  -0.264643  -0.303919  0  4.070233  0
C  C51  1  0.84538172  0.73098580  0.62726052  1  0  -0.233604  0  3.844416  0  0  -0.304334  0  4.080335  0  0  -0.305601  0  4.096873  0  0  -0.264479  -0.303255  0  4.068699  0
C  C52  1  0.88537870  0.73063026  0.12741234  1  0  -0.234319  0  3.846362  0  0  -0.305137  0  4.082017  0  0  -0.306428  0  4.09854  0  0  -0.264685  -0.304038  0  4.070405  0
C  C53  1  0.15462745  0.26901445  0.37274041  1  0  -0.233802  0  3.844616  0  0  -0.304507  0  4.080517  0  0  -0.30578  0  4.097057  0  0  -0.264504  -0.303421  0  4.068888  0
C  C54  1  0.23738356  0.32801056  0.68519207  1  0  -0.234408  0  3.852807  0  0  -0.309641  0  4.096783  0  0  -0.31048  0  4.111544  0  0  -0.264462  -0.308842  0  4.086463  0
C  C55  1  0.90913485  0.67190441  0.81460012  1  0  -0.234531  0  3.851641  0  0  -0.309514  0  4.095641  0  0  -0.310439  0  4.110327  0  0  -0.264854  -0.308704  0  4.08536  0
C  C56  1  0.76260926  0.67198972  0.31480557  1  0  -0.234387  0  3.852778  0  0  -0.309656  0  4.09678  0  0  -0.310496  0  4.11154  0  0  -0.264464  -0.30886  0  4.08646  0
C  C57  1  0.09086946  0.32809431  0.18540220  1  0  -0.234546  0  3.851739  0  0  -0.309517  0  4.095733  0  0  -0.310441  0  4.110419  0  0  -0.264848  -0.308706  0  4.085458  0
C  C58  1  0.39314436  0.80481181  0.51880048  1  0  0.050966  0  3.597406  0  0  -0.013475  0  3.869019  0  0  -0.006366  0  3.872484  0  0  -0.064752  -0.01831  0  3.866891  0
C  C59  1  0.58827200  0.19518086  0.98118859  1  0  0.052652  0  3.595582  0  0  -0.013242  0  3.868161  0  0  -0.006157  0  3.871645  0  0  -0.064611  -0.017932  0  3.865981  0
C  C60  1  0.60685008  0.19518079  0.48119838  1  0  0.050917  0  3.597372  0  0  -0.013501  0  3.868946  0  0  -0.006405  0  3.872431  0  0  -0.064715  -0.01833  0  3.866813  0
C  C61  1  0.41174041  0.80482860  0.01881219  1  0  0.052649  0  3.595533  0  0  -0.013175  0  3.868049  0  0  -0.006111  0  3.871563  0  0  -0.064554  -0.017862  0  3.865889  0
C  C62  1  0.64458764  0.15976066  0.59398965  1  0  0.055979  0  3.579937  0  0  -0.006427  0  3.847997  0  0  0.00053  0  3.851656  0  0  -0.063224  -0.011153  0  3.845783  0
C  C63  1  0.48448869  0.84016757  0.90595667  1  0  0.058644  0  3.578951  0  0  -0.004367  0  3.846503  0  0  0.002661  0  3.850085  0  0  -0.062534  -0.009185  0  3.844431  0
C  C64  1  0.35540484  0.84023347  0.40601028  1  0  0.055839  0  3.579956  0  0  -0.006497  0  3.847932  0  0  0.000467  0  3.851575  0  0  -0.063253  -0.011229  0  3.845725  0
C  C65  1  0.51552584  0.15984341  0.09404601  1  0  0.058612  0  3.579025  0  0  -0.004264  0  3.846479  0  0  0.00274  0  3.85008  0  0  -0.062442  -0.00905  0  3.844376  0
O  O66  1  0.45772560  0.98957911  0.61289817  1  0  -0.35236  0  2.310202  0  0  -0.266431  0  2.555959  0  0  -0.281478  0  2.552857  0  0  -0.255665  -0.256066  0  2.55809  0
O  O67  1  0.46776926  0.01037598  0.88716071  1  0  -0.354931  0  2.312558  0  0  -0.26785  0  2.558086  0  0  -0.28292  0  2.554966  0  0  -0.256143  -0.257642  0  2.560406  0
O  O68  1  0.54226399  0.01041195  0.38710126  1  0  -0.352268  0  2.31021  0  0  -0.266368  0  2.555934  0  0  -0.281413  0  2.552835  0  0  -0.255619  -0.256014  0  2.558072  0
O  O69  1  0.53223753  0.98963042  0.11283957  1  0  -0.354944  0  2.312728  0  0  -0.267877  0  2.558183  0  0  -0.282939  0  2.555082  0  0  -0.256167  -0.257692  0  2.560505  0
