# generated using pymatgen
data_ZnH16C24(NO)4
_symmetry_space_group_name_H-M   'P 1'
_cell_length_a   5.34557974
_cell_length_b   14.31667138
_cell_length_c   18.72451605
_cell_angle_alpha   100.58351304
_cell_angle_beta   90.02622503
_cell_angle_gamma   100.70524391
_symmetry_Int_Tables_number   1
_chemical_formula_structural   ZnH16C24(NO)4
_chemical_formula_sum   'Zn2 H32 C48 N8 O8'
_cell_volume   1383.22320007
_cell_formula_units_Z   2
loop_
 _symmetry_equiv_pos_site_id
 _symmetry_equiv_pos_as_xyz
  1  'x, y, z'
loop_
 _atom_site_type_symbol
 _atom_site_label
 _atom_site_symmetry_multiplicity
 _atom_site_fract_x
 _atom_site_fract_y
 _atom_site_fract_z
 _atom_site_occupancy
 _atom_site_hle17_bader_spin_density
 _atom_site_hle17_ddec_charge
 _atom_site_hle17_ddec_spin_density
 _atom_site_hle17_ddec_sum_bond_order
 _atom_site_hle17_magmom
 _atom_site_hse06_10hf_bader_charge
 _atom_site_hse06_10hf_bader_spin_density
 _atom_site_hse06_10hf_ddec_charge
 _atom_site_hse06_10hf_ddec_spin_density
 _atom_site_hse06_10hf_ddec_sum_bond_order
 _atom_site_hse06_10hf_magmom
 _atom_site_hse06_bader_spin_density
 _atom_site_hse06_ddec_charge
 _atom_site_hse06_ddec_spin_density
 _atom_site_hse06_ddec_sum_bond_order
 _atom_site_hse06_magmom
 _atom_site_pbe_bader_spin_density
 _atom_site_pbe_cm5_charge
 _atom_site_pbe_ddec_charge
 _atom_site_pbe_ddec_spin_density
 _atom_site_pbe_ddec_sum_bond_order
 _atom_site_pbe_magmom
Zn  Zn0  1  0.07499707  0.00020362  0.75009751  1  0  0.98472  0  1.862005  0  1.274609  0  0.785287  0  2.34602  0  0  0.833261  0  2.290875  0  0  0.69377  0.751971  0  2.383921  0
Zn  Zn1  1  0.92505854  0.99980264  0.24991681  1  0  0.98476  0  1.8621  0  1.273981  0  0.785415  0  2.345956  0  0  0.833417  0  2.290729  0  0  0.693858  0.752068  0  2.383946  0
H  H2  1  0.68245403  0.11095372  0.71144438  1  0  0.110701  0  0.946403  0  0.190478  0  0.11715  0  1.006679  0  0  0.120361  0  1.0035  0  0  0.126493  0.114699  0  1.009136  0
H  H3  1  0.57228176  0.88925030  0.78857867  1  0  0.110398  0  0.947707  0  0.184441  0  0.117465  0  1.007086  0  0  0.120568  0  1.00405  0  0  0.126604  0.115086  0  1.009451  0
H  H4  1  0.31754195  0.88901172  0.28856807  1  0  0.110466  0  0.946231  0  0.190217  0  0.116916  0  1.006595  0  0  0.12012  0  1.003425  0  0  0.12637  0.114472  0  1.009049  0
H  H5  1  0.42773858  0.11076028  0.21143695  1  0  0.110394  0  0.947404  0  0.184207  0  0.117406  0  1.006863  0  0  0.120514  0  1.003837  0  0  0.126498  0.115019  0  1.009233  0
H  H6  1  0.41830739  0.11304402  0.60409160  1  0  0.114576  0  0.940052  0  0.085853  0  0.128364  0  0.990535  0  0  0.131456  0  0.989971  0  0  0.117475  0.126104  0  0.991188  0
H  H7  1  0.30608014  0.88702556  0.89582475  1  0  0.114185  0  0.940512  0  0.09535  0  0.12793  0  0.991094  0  0  0.131032  0  0.990534  0  0  0.117312  0.12566  0  0.991742  0
H  H8  1  0.58167720  0.88693233  0.39592171  1  0  0.114761  0  0.940045  0  0.085939  0  0.128427  0  0.990591  0  0  0.131524  0  0.990018  0  0  0.117551  0.126168  0  0.991244  0
H  H9  1  0.69393346  0.11297901  0.10418232  1  0  0.114118  0  0.940709  0  0.095135  0  0.127893  0  0.991273  0  0  0.131004  0  0.990714  0  0  0.117349  0.125622  0  0.991917  0
H  H10  1  0.78170583  0.88731208  0.48540614  1  0  0.111592  0  0.943514  0  0.086465  0  0.126816  0  0.991977  0  0  0.129794  0  0.991575  0  0  0.116184  0.124677  0  0.992445  0
H  H11  1  0.89365095  0.11291273  0.01469966  1  0  0.112289  0  0.943112  0  0.093192  0  0.127511  0  0.991477  0  0  0.13049  0  0.99107  0  0  0.116569  0.125356  0  0.991969  0
H  H12  1  0.21842646  0.11272051  0.51458664  1  0  0.111849  0  0.943292  0  0.084364  0  0.127033  0  0.991742  0  0  0.130089  0  0.991234  0  0  0.116251  0.124846  0  0.992276  0
H  H13  1  0.10637477  0.88708234  0.98531803  1  0  0.112278  0  0.943239  0  0.093354  0  0.12743  0  0.991657  0  0  0.130417  0  0.991237  0  0  0.116496  0.125264  0  0.992174  0
H  H14  1  0.02635148  0.89438008  0.59876959  1  0  0.088426  0  0.948397  0  0.115689  0  0.097583  0  1.008314  0  0  0.099666  0  1.007513  0  0  0.123135  0.095999  0  1.008976  0
H  H15  1  0.13124679  0.10592264  0.90141059  1  0  0.087801  0  0.947312  0  0.131999  0  0.095955  0  1.008143  0  0  0.098029  0  1.007349  0  0  0.122184  0.094403  0  1.008743  0
H  H16  1  0.97371986  0.10562780  0.40122096  1  0  0.088613  0  0.948157  0  0.11546  0  0.097696  0  1.008121  0  0  0.099779  0  1.007319  0  0  0.123087  0.096111  0  1.008786  0
H  H17  1  0.86879006  0.89407601  0.09860827  1  0  0.087938  0  0.947307  0  0.132509  0  0.096074  0  1.008165  0  0  0.098151  0  1.007364  0  0  0.122217  0.094521  0  1.008766  0
H  H18  1  0.49860119  0.81508841  0.62364943  1  0  0.086312  0  0.99055  0  0.032943  0  0.092012  0  1.061577  0  0  0.094827  0  1.060859  0  0  0.091349  0.090022  0  1.062086  0
H  H19  1  0.68387190  0.18519657  0.87617600  1  0  0.085042  0  0.991705  0  0.091474  0  0.091208  0  1.06212  0  0  0.093976  0  1.06153  0  0  0.091403  0.089227  0  1.062593  0
H  H20  1  0.50143790  0.18489596  0.37636423  1  0  0.086154  0  0.990653  0  0.032768  0  0.092081  0  1.061507  0  0  0.094891  0  1.060797  0  0  0.091364  0.090093  0  1.061998  0
H  H21  1  0.31615174  0.81480934  0.12384361  1  0  0.085135  0  0.991478  0  0.091687  0  0.091313  0  1.061888  0  0  0.094083  0  1.061293  0  0  0.091415  0.089326  0  1.062373  0
H  H22  1  0.64490495  0.67916658  0.53899498  1  0  0.099266  0  0.959218  0  0.082502  0  0.102004  0  1.029885  0  0  0.106384  0  1.026771  0  0  0.100547  0.098873  0  1.032192  0
H  H23  1  0.96610280  0.32094429  0.96079810  1  0  0.098601  0  0.959509  0  0.083969  0  0.101232  0  1.030386  0  0  0.105562  0  1.027321  0  0  0.100078  0.098079  0  1.032733  0
H  H24  1  0.35498320  0.32080402  0.46099538  1  0  0.09913  0  0.959191  0  0.082156  0  0.10193  0  1.029812  0  0  0.106313  0  1.026695  0  0  0.100486  0.098795  0  1.032132  0
H  H25  1  0.03393857  0.67906342  0.03921648  1  0  0.098699  0  0.959558  0  0.0836  0  0.101358  0  1.030385  0  0  0.105687  0  1.02732  0  0  0.100081  0.098188  0  1.032749  0
H  H26  1  0.01086200  0.47906935  0.59767780  1  0  0.106313  0  0.930183  0  0.113945  0  0.115448  0  0.988327  0  0  0.119194  0  0.986508  0  0  0.107825  0.112731  0  0.989814  0
H  H27  1  0.53198708  0.52138013  0.90226382  1  0  0.107581  0  0.928968  0  0.066429  0  0.11627  0  0.987465  0  0  0.119997  0  0.985677  0  0  0.107922  0.113511  0  0.989011  0
H  H28  1  0.98884283  0.52095774  0.40226695  1  0  0.106461  0  0.93004  0  0.115542  0  0.11551  0  0.988294  0  0  0.119256  0  0.986473  0  0  0.107766  0.112793  0  0.989782  0
H  H29  1  0.46806286  0.47862606  0.09774087  1  0  0.107504  0  0.929053  0  0.066369  0  0.116189  0  0.987559  0  0  0.119928  0  0.985756  0  0  0.107851  0.113424  0  0.989103  0
H  H30  1  0.86108690  0.61648440  0.68073078  1  0  0.107845  0  0.932998  0  0.109122  0  0.118595  0  0.987837  0  0  0.12206  0  0.986118  0  0  0.107653  0.116106  0  0.989101  0
H  H31  1  0.24469172  0.38411697  0.81922952  1  0  0.107379  0  0.932801  0  0.098203  0  0.118412  0  0.987417  0  0  0.121807  0  0.985756  0  0  0.107603  0.115927  0  0.988707  0
H  H32  1  0.13876455  0.38354776  0.31924695  1  0  0.107649  0  0.933232  0  0.109048  0  0.118602  0  0.987854  0  0  0.12199  0  0.986225  0  0  0.107665  0.11609  0  0.989146  0
H  H33  1  0.75536313  0.61588405  0.18077586  1  0  0.107325  0  0.932821  0  0.098221  0  0.118411  0  0.987383  0  0  0.121779  0  0.985753  0  0  0.107593  0.115945  0  0.988644  0
C  C34  1  0.69685115  0.06258050  0.66015523  1  0  0.165681  0  3.644404  0  0.505492  0  0.131862  0  3.894818  0  0  0.140881  0  3.909377  0  0  0.064696  0.125877  0  3.885227  0
C  C35  1  0.63480765  0.93760023  0.83987624  1  0  0.163674  0  3.648837  0  0.466177  0  0.130011  0  3.899273  0  0  0.139076  0  3.913869  0  0  0.063933  0.124  0  3.889636  0
C  C36  1  0.30316704  0.93739574  0.33984897  1  0  0.166275  0  3.643855  0  0.50495  0  0.132331  0  3.894374  0  0  0.141343  0  3.908935  0  0  0.064895  0.126343  0  3.884798  0
C  C37  1  0.36522391  0.06239910  0.16013258  1  0  0.163575  0  3.648477  0  0.465563  0  0.130011  0  3.89887  0  0  0.139059  0  3.913491  0  0  0.063993  0.124007  0  3.889224  0
C  C38  1  0.55048764  0.06301623  0.59891942  1  0  -0.146991  0  3.66754  0  0.012185  0  -0.165762  0  3.915101  0  0  -0.173825  0  3.935402  0  0  -0.072496  -0.16068  0  3.901659  0
C  C39  1  0.48802728  0.93707678  0.90107163  1  0  -0.144889  0  3.667635  0  -0.009468  0  -0.163826  0  3.914627  0  0  -0.171877  0  3.934931  0  0  -0.071672  -0.158735  0  3.901159  0
C  C40  1  0.44952674  0.93696741  0.40108341  1  0  -0.147136  0  3.66741  0  0.012487  0  -0.165638  0  3.91501  0  0  -0.173694  0  3.935287  0  0  -0.072338  -0.160557  0  3.901581  0
C  C41  1  0.51201491  0.06291760  0.09893471  1  0  -0.144808  0  3.667765  0  -0.008484  0  -0.163836  0  3.914818  0  0  -0.171895  0  3.93514  0  0  -0.071755  -0.158736  0  3.90133  0
C  C42  1  0.57527450  0.00046143  0.53324537  1  0  0.093938  0  3.757398  0  -0.059979  0  0.103135  0  3.994633  0  0  0.10751  0  4.01613  0  0  0.016156  0.100381  0  3.979913  0
C  C43  1  0.57482367  0.99962290  0.96678110  1  0  0.093422  0  3.753957  0  -0.019654  0  0.103268  0  3.989564  0  0  0.107638  0  4.011079  0  0  0.016313  0.100524  0  3.974824  0
C  C44  1  0.42480792  0.99954991  0.46674793  1  0  0.094021  0  3.757371  0  -0.018397  0  0.102923  0  3.994761  0  0  0.107299  0  4.016273  0  0  0.016038  0.100179  0  3.980028  0
C  C45  1  0.42520463  0.00037740  0.03322415  1  0  0.093391  0  3.753899  0  0.022086  0  0.103183  0  3.989582  0  0  0.107544  0  4.01111  0  0  0.016212  0.100439  0  3.974842  0
C  C46  1  0.75065196  0.93855625  0.53361891  1  0  -0.158738  0  3.722129  0  -0.040848  0  -0.178235  0  3.972951  0  0  -0.186479  0  3.994708  0  0  -0.077991  -0.17291  0  3.958324  0
C  C47  1  0.81168209  0.06162538  0.96647334  1  0  -0.159968  0  3.718874  0  -0.055883  0  -0.179823  0  3.968904  0  0  -0.188066  0  3.990645  0  0  -0.078573  -0.174483  0  3.954268  0
C  C48  1  0.24944716  0.06146232  0.46637567  1  0  -0.159173  0  3.722147  0  -0.038386  0  -0.178559  0  3.972995  0  0  -0.18686  0  3.994734  0  0  -0.078179  -0.1732  0  3.958377  0
C  C49  1  0.18836201  0.93836528  0.03354464  1  0  -0.160079  0  3.719086  0  -0.054736  0  -0.179811  0  3.969121  0  0  -0.188055  0  3.990864  0  0  -0.078613  -0.174472  0  3.954502  0
C  C50  1  0.88900758  0.94151795  0.59685881  1  0  0.131226  0  3.705993  0  0.509595  0  0.099396  0  3.957351  0  0  0.106343  0  3.976062  0  0  0.052355  0.094883  0  3.944703  0
C  C51  1  0.94710421  0.05871267  0.90326841  1  0  0.132209  0  3.703791  0  0.518357  0  0.101782  0  3.955405  0  0  0.108761  0  3.974023  0  0  0.053199  0.097253  0  3.942784  0
C  C52  1  0.11107154  0.05848675  0.40313546  1  0  0.130901  0  3.705503  0  0.510339  0  0.099149  0  3.956831  0  0  0.10608  0  3.975568  0  0  0.052334  0.094653  0  3.944163  0
C  C53  1  0.05291682  0.94128052  0.09674467  1  0  0.132127  0  3.703388  0  0.517216  0  0.101618  0  3.95509  0  0  0.10859  0  3.973711  0  0  0.053097  0.097107  0  3.942457  0
C  C54  1  0.08387624  0.80565107  0.70544850  1  0  0.616671  0  3.938173  0  1.576765  0  0.571611  0  4.229039  0  0  0.605043  0  4.22252  0  0  0.192409  0.548936  0  4.232531  0
C  C55  1  0.27797644  0.19474151  0.79459565  1  0  0.613995  0  3.942552  0  1.551697  0  0.569017  0  4.233416  0  0  0.602439  0  4.226946  0  0  0.192205  0.546346  0  4.236871  0
C  C56  1  0.91612733  0.19435968  0.29455379  1  0  0.61696  0  3.938358  0  1.576177  0  0.571868  0  4.22918  0  0  0.605302  0  4.222659  0  0  0.192473  0.549187  0  4.232679  0
C  C57  1  0.72208858  0.80525736  0.20542004  1  0  0.614105  0  3.942929  0  1.552865  0  0.569034  0  4.233873  0  0  0.602461  0  4.227405  0  0  0.192237  0.546363  0  4.237325  0
C  C58  1  0.17200125  0.72351632  0.65675496  1  0  -0.058273  0  3.739975  0  -0.073843  0  -0.033414  0  3.966313  0  0  -0.042556  0  3.991397  0  0  -0.016739  -0.027441  0  3.949297  0
C  C59  1  0.44851149  0.27686839  0.84314765  1  0  -0.057585  0  3.741179  0  -0.020997  0  -0.033  0  3.967991  0  0  -0.042089  0  3.993022  0  0  -0.016714  -0.027048  0  3.950994  0
C  C60  1  0.82793571  0.27648470  0.34322902  1  0  -0.05863  0  3.740291  0  -0.073653  0  -0.033713  0  3.966681  0  0  -0.042848  0  3.991738  0  0  -0.016777  -0.02773  0  3.949654  0
C  C61  1  0.55152789  0.72313910  0.15685941  1  0  -0.057455  0  3.741109  0  -0.021254  0  -0.032817  0  3.96792  0  0  -0.041922  0  3.992953  0  0  -0.016527  -0.026871  0  3.950926  0
C  C62  1  0.39222402  0.74134871  0.61653283  1  0  -0.061818  0  3.762737  0  0.047713  0  -0.084512  0  4.009635  0  0  -0.084351  0  4.031312  0  0  -0.091382  -0.084333  0  3.99478  0
C  C63  1  0.65115662  0.25895136  0.88329867  1  0  -0.060275  0  3.762733  0  -0.025397  0  -0.083384  0  4.009923  0  0  -0.083238  0  4.031563  0  0  -0.09097  -0.083201  0  3.995064  0
C  C64  1  0.60773868  0.25864010  0.38345862  1  0  -0.061561  0  3.762451  0  0.047261  0  -0.084499  0  4.009366  0  0  -0.084339  0  4.031042  0  0  -0.091464  -0.084312  0  3.994521  0
C  C65  1  0.34885801  0.74105151  0.11671185  1  0  -0.060201  0  3.76288  0  -0.025673  0  -0.083312  0  4.01003  0  0  -0.083158  0  4.031668  0  0  -0.090941  -0.083126  0  3.995171  0
C  C66  1  0.47351298  0.66681080  0.57004206  1  0  -0.131519  0  3.735466  0  -0.062  0  -0.149714  0  3.981963  0  0  -0.154561  0  4.004394  0  0  -0.087914  -0.14649  0  3.966716  0
C  C67  1  0.80696706  0.33339299  0.92979620  1  0  -0.131304  0  3.733621  0  -0.098895  0  -0.148976  0  3.980568  0  0  -0.153805  0  4.003052  0  0  -0.088339  -0.145729  0  3.965306  0
C  C68  1  0.52635687  0.33317193  0.42993121  1  0  -0.131086  0  3.73528  0  -0.07378  0  -0.149257  0  3.981853  0  0  -0.154108  0  4.004289  0  0  -0.087677  -0.146034  0  3.966597  0
C  C69  1  0.19307091  0.66660416  0.07021223  1  0  -0.13171  0  3.734317  0  -0.097917  0  -0.149377  0  3.981278  0  0  -0.1542  0  4.003764  0  0  -0.088433  -0.14611  0  3.96603  0
C  C70  1  0.33495643  0.57171315  0.56368495  1  0  0.162849  0  3.809945  0  0.375557  0  0.168523  0  4.058934  0  0  0.169113  0  4.084249  0  0  0.087675  0.168231  0  4.04169  0
C  C71  1  0.76349973  0.42853815  0.93620585  1  0  0.162916  0  3.809393  0  0.393261  0  0.167416  0  4.059734  0  0  0.168055  0  4.084989  0  0  0.087022  0.167101  0  4.042508  0
C  C72  1  0.66484628  0.42828508  0.43627554  1  0  0.162533  0  3.810266  0  0.387348  0  0.167992  0  4.059572  0  0  0.168577  0  4.084922  0  0  0.087527  0.167706  0  4.042322  0
C  C73  1  0.23655659  0.57146208  0.06380046  1  0  0.163339  0  3.809211  0  0.392596  0  0.167727  0  4.059655  0  0  0.168351  0  4.084917  0  0  0.087247  0.167407  0  4.042431  0
C  C74  1  0.11476704  0.55335471  0.60381187  1  0  -0.114625  0  3.704894  0  -0.055702  0  -0.13718  0  3.956988  0  0  -0.14217  0  3.979609  0  0  -0.078  -0.133916  0  3.941645  0
C  C75  1  0.56162603  0.44703855  0.89609068  1  0  -0.117714  0  3.704972  0  0.006911  0  -0.139337  0  3.957351  0  0  -0.144328  0  3.979888  0  0  -0.078032  -0.136035  0  3.942076  0
C  C76  1  0.88498445  0.44666091  0.39612924  1  0  -0.115056  0  3.705085  0  -0.057133  0  -0.137494  0  3.957342  0  0  -0.142479  0  3.979929  0  0  -0.077996  -0.134228  0  3.941993  0
C  C77  1  0.43843435  0.55296605  0.10391587  1  0  -0.117756  0  3.705277  0  0.006583  0  -0.139317  0  3.957662  0  0  -0.144307  0  3.980188  0  0  -0.078052  -0.13601  0  3.942386  0
C  C78  1  0.03265762  0.62892114  0.64972747  1  0  -0.058821  0  3.732482  0  -0.004181  0  -0.080465  0  3.976607  0  0  -0.080855  0  3.999195  0  0  -0.079007  -0.079906  0  3.961095  0
C  C79  1  0.40391430  0.37153484  0.85017092  1  0  -0.057166  0  3.732746  0  -0.014538  0  -0.079137  0  3.976856  0  0  -0.07944  0  3.999406  0  0  -0.078708  -0.078602  0  3.961356  0
C  C80  1  0.96717949  0.37108977  0.35024009  1  0  -0.058185  0  3.732963  0  -0.004303  0  -0.08004  0  3.977055  0  0  -0.080358  0  3.999657  0  0  -0.07884  -0.079471  0  3.961563  0
C  C81  1  0.59613365  0.62847110  0.14983747  1  0  -0.057343  0  3.733132  0  -0.014551  0  -0.079383  0  3.977258  0  0  -0.079659  0  3.999823  0  0  -0.078874  -0.078857  0  3.961739  0
N  N82  1  0.40514090  0.49022068  0.51955366  1  0  -0.159216  0  3.005406  0  -0.490594  0  -0.139062  0  3.290788  0  0  -0.137245  0  3.296291  0  0  -0.150457  -0.140074  0  3.286902  0
N  N83  1  0.91511648  0.50988992  0.98042786  1  0  -0.158832  0  3.008275  0  -0.532228  0  -0.138267  0  3.293823  0  0  -0.136456  0  3.299313  0  0  -0.150116  -0.139278  0  3.28994  0
N  N84  1  0.59458587  0.50977534  0.48039629  1  0  -0.159087  0  3.005298  0  -0.537915  0  -0.138762  0  3.290699  0  0  -0.136946  0  3.296204  0  0  -0.150439  -0.139771  0  3.286809  0
N  N85  1  0.08493611  0.49012162  0.01957350  1  0  -0.158776  0  3.00828  0  -0.482136  0  -0.138176  0  3.293866  0  0  -0.136366  0  3.299359  0  0  -0.150198  -0.139182  0  3.289981  0
N  N86  1  0.86367200  0.00260843  0.65922290  1  0  -0.320734  0  3.286465  0  -1.293382  0  -0.234698  0  3.566483  0  0  -0.253702  0  3.578673  0  0  -0.32295  -0.222038  0  3.558327  0
N  N87  1  0.86119478  0.99763769  0.84086477  1  0  -0.318911  0  3.288112  0  -1.292413  0  -0.234743  0  3.569895  0  0  -0.253665  0  3.581929  0  0  -0.323067  -0.222119  0  3.561834  0
N  N88  1  0.13637499  0.99737684  0.34077755  1  0  -0.320671  0  3.286217  0  -1.292659  0  -0.234679  0  3.566429  0  0  -0.253659  0  3.578591  0  0  -0.322889  -0.222035  0  3.558296  0
N  N89  1  0.13883527  0.00235860  0.15914566  1  0  -0.318723  0  3.287547  0  -1.292762  0  -0.234464  0  3.569198  0  0  -0.253388  0  3.581246  0  0  -0.322737  -0.22184  0  3.561129  0
O  O90  1  0.23580493  0.89021044  0.70983803  1  0  -0.674508  0  2.059079  0  -1.20433  0  -0.599318  0  2.338017  0  0  -0.628692  0  2.323032  0  0  -0.346823  -0.578499  0  2.34746  0
O  O91  1  0.34536784  0.11013388  0.79039337  1  0  -0.675635  0  2.061595  0  -1.199525  0  -0.599713  0  2.339575  0  0  -0.629172  0  2.324827  0  0  -0.347794  -0.578843  0  2.348868  0
O  O92  1  0.76426837  0.10979001  0.29018650  1  0  -0.674706  0  2.059283  0  -1.20462  0  -0.599425  0  2.338197  0  0  -0.628806  0  2.323206  0  0  -0.346865  -0.5786  0  2.347644  0
O  O93  1  0.65466987  0.88986271  0.20963422  1  0  -0.675722  0  2.061465  0  -1.199666  0  -0.599886  0  2.339611  0  0  -0.629344  0  2.324862  0  0  -0.347921  -0.579013  0  2.348908  0
O  O94  1  0.87833064  0.79322966  0.73691189  1  0  -0.602348  0  1.898331  0  -1.193934  0  -0.562624  0  2.110825  0  0  -0.584657  0  2.103208  0  0  -0.326611  -0.547077  0  2.115475  0
O  O95  1  0.08479262  0.20720423  0.76309861  1  0  -0.599926  0  1.899638  0  -1.195479  0  -0.56019  0  2.111952  0  0  -0.582229  0  2.10442  0  0  -0.325721  -0.544647  0  2.116552  0
O  O96  1  0.12167202  0.20678676  0.26309300  1  0  -0.602475  0  1.898289  0  -1.193023  0  -0.562797  0  2.110846  0  0  -0.584827  0  2.103216  0  0  -0.326727  -0.547247  0  2.115497  0
O  O97  1  0.91527427  0.79278339  0.23691028  1  0  -0.599931  0  1.899758  0  -1.196079  0  -0.560156  0  2.112116  0  0  -0.582196  0  2.104585  0  0  -0.325698  -0.544608  0  2.116714  0
