# generated using pymatgen
data_ZnH22C24(NO)4
_symmetry_space_group_name_H-M   'P 1'
_cell_length_a   10.72928050
_cell_length_b   21.50207002
_cell_length_c   21.49615940
_cell_angle_alpha   117.29523366
_cell_angle_beta   99.55695641
_cell_angle_gamma   99.59867664
_symmetry_Int_Tables_number   1
_chemical_formula_structural   ZnH22C24(NO)4
_chemical_formula_sum   'Zn6 H132 C144 N24 O24'
_cell_volume   4175.60049745
_cell_formula_units_Z   6
loop_
 _symmetry_equiv_pos_site_id
 _symmetry_equiv_pos_as_xyz
  1  'x, y, z'
loop_
 _atom_site_type_symbol
 _atom_site_label
 _atom_site_symmetry_multiplicity
 _atom_site_fract_x
 _atom_site_fract_y
 _atom_site_fract_z
 _atom_site_occupancy
 _atom_site_pbe_bader_charge
 _atom_site_pbe_bader_spin_density
 _atom_site_pbe_cm5_charge
 _atom_site_pbe_ddec_charge
 _atom_site_pbe_ddec_spin_density
 _atom_site_pbe_ddec_sum_bond_order
 _atom_site_pbe_magmom
Zn  Zn0  1  0.92249112  0.37164130  0.21977066  1  1.260158  0  0.721355  0.779818  0  2.466672  0
Zn  Zn1  1  0.70277100  0.78025828  0.15211805  1  1.260903  0  0.722294  0.780966  0  2.467138  0
Zn  Zn2  1  0.55081083  0.84790184  0.62827738  1  1.260046  0  0.722656  0.780629  0  2.465544  0
Zn  Zn3  1  0.07751111  0.62835694  0.78022609  1  1.260124  0  0.721362  0.779872  0  2.46657  0
Zn  Zn4  1  0.29723166  0.21974649  0.84788172  1  1.260722  0  0.722259  0.780925  0  2.467138  0
Zn  Zn5  1  0.44918379  0.15209640  0.37172103  1  1.260155  0  0.722606  0.780551  0  2.465676  0
H  H6  1  0.51875681  0.74264069  0.36088842  1  0.117635  0  0.102706  0.103665  0  1.008509  0
H  H7  1  0.15803877  0.63911408  0.38180203  1  0.092333  0  0.102855  0.104183  0  1.008976  0
H  H8  1  0.77604961  0.61801759  0.25725545  1  0.090553  0  0.102861  0.103734  0  1.009203  0
H  H9  1  0.48123074  0.25736626  0.63911799  1  0.117903  0  0.102722  0.103704  0  1.008588  0
H  H10  1  0.84195422  0.36088634  0.61819164  1  0.092294  0  0.102913  0.104139  0  1.008864  0
H  H11  1  0.22394947  0.38198391  0.74274530  1  0.090633  0  0.102882  0.103763  0  1.009112  0
H  H12  1  0.50032306  0.59491988  0.13927495  1  0.079724  0  0.103301  0.108296  0  1.00138  0
H  H13  1  0.36102269  0.86076023  0.45582445  1  0.079819  0  0.104286  0.109206  0  1.001025  0
H  H14  1  0.90622514  0.54449173  0.40509202  1  0.088519  0  0.104161  0.109231  0  1.000763  0
H  H15  1  0.49969638  0.40509034  0.86073529  1  0.078066  0  0.103273  0.108248  0  1.001371  0
H  H16  1  0.63898577  0.13923910  0.54417241  1  0.080071  0  0.104297  0.109205  0  1.001055  0
H  H17  1  0.09376530  0.45550378  0.59490385  1  0.088583  0  0.1042  0.109233  0  1.0007  0
H  H18  1  0.40400211  0.63902487  0.37213241  1  0.081708  0  0.100694  0.106959  0  1.022228  0
H  H19  1  0.03205748  0.62790059  0.26697194  1  0.073314  0  0.100401  0.105943  0  1.02139  0
H  H20  1  0.76481425  0.73287589  0.36086359  1  0.058728  0  0.100407  0.105857  0  1.021578  0
H  H21  1  0.59597763  0.36097772  0.62786901  1  0.081669  0  0.100694  0.106956  0  1.022221  0
H  H22  1  0.96793798  0.37210091  0.73302059  1  0.073336  0  0.100378  0.105948  0  1.021461  0
H  H23  1  0.23519481  0.26712671  0.63913994  1  0.05867  0  0.100431  0.105865  0  1.021672  0
H  H24  1  0.38702250  0.49023120  0.14994006  1  0.0693  0  0.104295  0.111389  0  0.996799  0
H  H25  1  0.23682233  0.85018952  0.34061885  1  0.056011  0  0.103694  0.110193  0  0.997186  0
H  H26  1  0.89726311  0.65972774  0.50972439  1  0.056526  0  0.103143  0.109745  0  0.997122  0
H  H27  1  0.61298058  0.50977629  0.85006145  1  0.069071  0  0.10421  0.111328  0  0.99696  0
H  H28  1  0.76318848  0.14981253  0.65937760  1  0.056145  0  0.103608  0.110135  0  0.997352  0
H  H29  1  0.10274221  0.34026723  0.49027114  1  0.056493  0  0.103182  0.109845  0  0.996933  0
H  H30  1  0.16590116  0.49905787  0.14208670  1  0.041328  0  0.094386  0.135804  0  1.023798  0
H  H31  1  0.02331835  0.85796742  0.35722131  1  0.044122  0  0.093755  0.135734  0  1.023358  0
H  H32  1  0.66716085  0.64289645  0.50107923  1  0.061286  0  0.094422  0.13626  0  1.023445  0
H  H33  1  0.83408735  0.50093764  0.85791086  1  0.041257  0  0.094403  0.135811  0  1.023618  0
H  H34  1  0.97668447  0.14203572  0.64277679  1  0.044111  0  0.093734  0.135671  0  1.023431  0
H  H35  1  0.33284420  0.35710179  0.49891870  1  0.06161  0  0.094438  0.13623  0  1.023384  0
H  H36  1  0.08618172  0.40472047  0.09896240  1  0.083732  0  0.095887  0.144203  0  0.99742  0
H  H37  1  0.98660455  0.90099155  0.30594741  1  0.060599  0  0.096044  0.143923  0  0.997419  0
H  H38  1  0.68143896  0.69423487  0.59534755  1  0.063974  0  0.095593  0.144104  0  0.99772  0
H  H39  1  0.91381379  0.59527395  0.90103668  1  0.083692  0  0.095894  0.144201  0  0.997537  0
H  H40  1  0.01340163  0.09901268  0.69405196  1  0.06058  0  0.096039  0.143912  0  0.997461  0
H  H41  1  0.31856499  0.30576119  0.40464976  1  0.064093  0  0.095572  0.144124  0  0.997685  0
H  H42  1  0.01046416  0.46999244  0.15350604  1  0.057075  0  0.092674  0.134426  0  1.045225  0
H  H43  1  0.85645219  0.84629172  0.31658149  1  0.082036  0  0.092609  0.133613  0  1.045087  0
H  H44  1  0.54055227  0.68323006  0.52988960  1  0.070972  0  0.093453  0.134681  0  1.043909  0
H  H45  1  0.98953376  0.53000308  0.84649467  1  0.057154  0  0.092686  0.134439  0  1.045166  0
H  H46  1  0.14355212  0.15371251  0.68341678  1  0.081925  0  0.0926  0.133578  0  1.045137  0
H  H47  1  0.45945374  0.31676818  0.47010748  1  0.070863  0  0.09344  0.134686  0  1.043943  0
H  H48  1  0.65088814  0.31709939  0.91201250  1  0.089897  0  0.100506  0.151683  0  0.998691  0
H  H49  1  0.73803329  0.08793761  0.40531555  1  0.086616  0  0.101449  0.153097  0  0.996996  0
H  H50  1  0.33323058  0.59481499  0.68304727  1  0.076543  0  0.101185  0.152985  0  0.999304  0
H  H51  1  0.34911737  0.68289775  0.08798172  1  0.089908  0  0.100573  0.151831  0  0.998741  0
H  H52  1  0.26196911  0.91206499  0.59468925  1  0.086667  0  0.101449  0.15312  0  0.99702  0
H  H53  1  0.66676322  0.40518161  0.31695079  1  0.076901  0  0.101187  0.153016  0  0.999286  0
H  H54  1  0.57605670  0.36169848  0.98082283  1  0.081123  0  0.101513  0.152311  0  0.984233  0
H  H55  1  0.59435702  0.01910669  0.38108924  1  0.066239  0  0.102326  0.152841  0  0.98388  0
H  H56  1  0.21364546  0.61883656  0.63835607  1  0.063055  0  0.102123  0.153842  0  0.983342  0
H  H57  1  0.42394734  0.63830139  0.01917250  1  0.080947  0  0.101563  0.152393  0  0.984098  0
H  H58  1  0.40564125  0.98089318  0.61891070  1  0.066091  0  0.102327  0.152849  0  0.983903  0
H  H59  1  0.78634646  0.38116004  0.36164136  1  0.062739  0  0.102145  0.153911  0  0.983378  0
H  H60  1  0.73157654  0.40835523  0.98316420  1  0.044497  0  0.095165  0.130951  0  0.991915  0
H  H61  1  0.74754708  0.01674089  0.42532401  1  0.00895  0  0.095241  0.131385  0  0.992056  0
H  H62  1  0.32267779  0.57461767  0.59176965  1  0.045816  0  0.095584  0.131517  0  0.993211  0
H  H63  1  0.26842315  0.59164355  0.01683118  1  0.044547  0  0.095177  0.130979  0  0.991747  0
H  H64  1  0.25245180  0.98325844  0.57467900  1  0.009036  0  0.095231  0.13138  0  0.99201  0
H  H65  1  0.67731206  0.42537295  0.40822580  1  0.045914  0  0.095578  0.131572  0  0.993217  0
H  H66  1  0.53852344  0.15923436  0.90446320  1  0.059765  0  0.100907  0.107083  0  1.015335  0
H  H67  1  0.63375027  0.09557021  0.25491965  1  0.065553  0  0.100221  0.106526  0  1.015734  0
H  H68  1  0.37913839  0.74532069  0.84099430  1  0.047807  0  0.099867  0.105784  0  1.015615  0
H  H69  1  0.46147313  0.84076987  0.09554323  1  0.059908  0  0.100869  0.106979  0  1.015378  0
H  H70  1  0.36626705  0.90443239  0.74509716  1  0.064999  0  0.100245  0.106564  0  1.0157  0
H  H71  1  0.62086605  0.25468028  0.15900854  1  0.047815  0  0.099842  0.105756  0  1.015648  0
H  H72  1  0.86398295  0.15750054  0.01369286  1  0.059259  0  0.099452  0.144417  0  0.990967  0
H  H73  1  0.85043016  0.98621922  0.14407250  1  0.048146  0  0.098947  0.14328  0  0.991529  0
H  H74  1  0.70650277  0.85613757  0.84224687  1  0.05239  0  0.098763  0.143516  0  0.99147  0
H  H75  1  0.13601352  0.84249770  0.98630804  1  0.05929  0  0.09945  0.144391  0  0.99101  0
H  H76  1  0.14957767  0.01378664  0.85593333  1  0.048295  0  0.098957  0.143308  0  0.991485  0
H  H77  1  0.29348706  0.14385304  0.15774950  1  0.052392  0  0.098793  0.143547  0  0.991468  0
H  H78  1  0.99278679  0.22750385  0.09000885  1  0.037466  0  0.097612  0.139041  0  0.999308  0
H  H79  1  0.90288057  0.90995149  0.13785174  1  0.047384  0  0.096806  0.13838  0  0.99995  0
H  H80  1  0.76494687  0.86226741  0.77206534  1  0.06551  0  0.09617  0.137771  0  0.999337  0
H  H81  1  0.00721456  0.77249657  0.90999301  1  0.037435  0  0.097615  0.139069  0  0.999349  0
H  H82  1  0.09712748  0.09005655  0.86215186  1  0.047813  0  0.096842  0.138481  0  0.999893  0
H  H83  1  0.23505106  0.13772810  0.22793491  1  0.065335  0  0.096205  0.137832  0  0.999309  0
H  H84  1  0.84337584  0.19344099  0.10331694  1  0.064076  0  0.100275  0.146328  0  0.990321  0
H  H85  1  0.74025678  0.89658283  0.09037622  1  0.085099  0  0.099498  0.145818  0  0.989458  0
H  H86  1  0.64982139  0.90971486  0.80625719  1  0.068538  0  0.100697  0.146277  0  0.991178  0
H  H87  1  0.15661997  0.80656160  0.89668589  1  0.06413  0  0.100304  0.146397  0  0.990391  0
H  H88  1  0.25974768  0.10342195  0.90962883  1  0.08494  0  0.099445  0.145805  0  0.989522  0
H  H89  1  0.35016994  0.09028066  0.19374201  1  0.068509  0  0.100675  0.146232  0  0.991301  0
H  H90  1  0.50981890  0.53786403  0.38118778  1  0.073564  0  0.10305  0.147768  0  0.996294  0
H  H91  1  0.12869002  0.61885966  0.15662483  1  0.074718  0  0.102803  0.147994  0  0.996726  0
H  H92  1  0.97222997  0.84331789  0.46219447  1  0.085064  0  0.102492  0.146737  0  0.997061  0
H  H93  1  0.49017794  0.46213475  0.61880828  1  0.073574  0  0.103042  0.147778  0  0.996278  0
H  H94  1  0.87130748  0.38114239  0.84337464  1  0.074649  0  0.102762  0.14793  0  0.996781  0
H  H95  1  0.02777497  0.15668416  0.53781124  1  0.085113  0  0.102508  0.146806  0  0.996967  0
H  H96  1  0.39888395  0.53586026  0.43353033  1  0.052498  0  0.101158  0.144712  0  0.981082  0
H  H97  1  0.96531711  0.56664484  0.10242855  1  0.079476  0  0.100736  0.144227  0  0.982136  0
H  H98  1  0.86322529  0.89760672  0.46427368  1  0.055814  0  0.100175  0.14311  0  0.982313  0
H  H99  1  0.60112003  0.46413961  0.56646778  1  0.052633  0  0.101128  0.144688  0  0.981087  0
H  H100  1  0.03467945  0.43335721  0.89757037  1  0.079467  0  0.100699  0.144152  0  0.982199  0
H  H101  1  0.13678145  0.10239697  0.53573107  1  0.056009  0  0.10019  0.143186  0  0.982397  0
H  H102  1  0.45005397  0.45683795  0.38365431  1  0.061095  0  0.099453  0.140918  0  0.991333  0
H  H103  1  0.06631369  0.61644645  0.07317889  1  0.061319  0  0.098923  0.140334  0  0.99183  0
H  H104  1  0.99350081  0.92678741  0.54328487  1  0.05502  0  0.099283  0.140354  0  0.991708  0
H  H105  1  0.54994359  0.54316410  0.61634191  1  0.061094  0  0.099468  0.140959  0  0.991128  0
H  H106  1  0.93368462  0.38355342  0.92681873  1  0.061393  0  0.098953  0.140367  0  0.991749  0
H  H107  1  0.00650903  0.07321682  0.45672086  1  0.055204  0  0.099288  0.140369  0  0.991724  0
H  H108  1  0.50465497  0.04592424  0.78649973  1  0.08112  0  0.099872  0.095758  0  1.049648  0
H  H109  1  0.71814991  0.21336121  0.25935666  1  0.094162  0  0.099017  0.095899  0  1.050826  0
H  H110  1  0.45882217  0.74070310  0.95426444  1  0.090636  0  0.099478  0.096421  0  1.048149  0
H  H111  1  0.49533623  0.95407509  0.21350818  1  0.081527  0  0.09982  0.095654  0  1.049618  0
H  H112  1  0.28185731  0.78663812  0.74065498  1  0.094006  0  0.098989  0.095876  0  1.050848  0
H  H113  1  0.54118811  0.25930004  0.04573897  1  0.090357  0  0.099407  0.096364  0  1.048194  0
H  H114  1  0.90893750  0.11373026  0.79369214  1  0.09739  0  0.099645  0.096693  0  1.041039  0
H  H115  1  0.11502878  0.20597844  0.31985586  1  0.083217  0  0.099019  0.096361  0  1.039072  0
H  H116  1  0.79516442  0.68022599  0.88626121  1  0.094467  0  0.099046  0.096458  0  1.039903  0
H  H117  1  0.09104588  0.88626253  0.20630373  1  0.097217  0  0.099612  0.096692  0  1.040998  0
H  H118  1  0.88497929  0.79402198  0.68014146  1  0.083376  0  0.099026  0.096351  0  1.039057  0
H  H119  1  0.20481967  0.31975863  0.11372681  1  0.094028  0  0.098978  0.096327  0  1.039951  0
H  H120  1  0.94729125  0.22356145  0.91545271  1  0.092673  0  0.098594  0.101034  0  1.02573  0
H  H121  1  0.03127090  0.08432100  0.30799715  1  0.074054  0  0.098433  0.1011  0  1.02442  0
H  H122  1  0.72344082  0.69211160  0.77645754  1  0.059233  0  0.098862  0.101996  0  1.026503  0
H  H123  1  0.05270561  0.77643734  0.08454196  1  0.092562  0  0.098592  0.101054  0  1.025627  0
H  H124  1  0.96874739  0.91568106  0.69200367  1  0.047309  0  0.09844  0.101135  0  1.024569  0
H  H125  1  0.27653768  0.30786757  0.22352936  1  0.059499  0  0.098904  0.102039  0  1.026601  0
H  H126  1  0.16996476  0.39370351  0.32022342  1  0.561016  0  0.311168  0.274823  0  1.014983  0
H  H127  1  0.84994140  0.67989281  0.07360488  1  0.582903  0  0.310549  0.274519  0  1.013938  0
H  H128  1  0.77640327  0.92638404  0.60632877  1  0.567346  0  0.311719  0.275406  0  1.013459  0
H  H129  1  0.83003609  0.60629581  0.67977557  1  0.56102  0  0.311169  0.27486  0  1.014918  0
H  H130  1  0.15004633  0.32010488  0.92639268  1  0.582706  0  0.310606  0.27462  0  1.013891  0
H  H131  1  0.22358309  0.07361474  0.39367056  1  0.567453  0  0.311718  0.275299  0  1.013525  0
H  H132  1  0.78209808  0.41765380  0.12657778  1  0.563383  0  0.310214  0.271334  0  1.018612  0
H  H133  1  0.65507116  0.87345078  0.29132940  1  0.566666  0  0.311191  0.273583  0  1.014523  0
H  H134  1  0.36390901  0.70859406  0.58225264  1  0.56298  0  0.311686  0.273234  0  1.015587  0
H  H135  1  0.21790237  0.58234662  0.87342167  1  0.5634  0  0.310218  0.271361  0  1.018644  0
H  H136  1  0.34492951  0.12655018  0.70867311  1  0.566625  0  0.311213  0.273544  0  1.014519  0
H  H137  1  0.63608895  0.29140145  0.41774621  1  0.563009  0  0.311618  0.273136  0  1.015647  0
C  C138  1  0.29843196  0.49963371  0.26410632  1  0.077997  0  -0.028335  -0.1715  0  4.011533  0
C  C139  1  0.03438371  0.73601577  0.23573304  1  0.058877  0  -0.026203  -0.168644  0  4.004545  0
C  C140  1  0.79892140  0.76432963  0.50035065  1  0.005244  0  -0.028906  -0.173538  0  4.01044  0
C  C141  1  0.70156851  0.50036671  0.73589174  1  0.078197  0  -0.028336  -0.17159  0  4.011419  0
C  C142  1  0.96562105  0.26398737  0.76426245  1  0.058442  0  -0.026129  -0.168761  0  4.004534  0
C  C143  1  0.20109484  0.23567406  0.49965261  1  0.004365  0  -0.028943  -0.173405  0  4.010486  0
C  C144  1  0.17296565  0.45690734  0.21464049  1  0.41946  0  0.10642  0.231533  0  3.982911  0
C  C145  1  0.95828660  0.78542185  0.24246850  1  0.434696  0  0.105872  0.22819  0  3.983297  0
C  C146  1  0.71613268  0.75756505  0.54306095  1  0.459584  0  0.106682  0.23158  0  3.984401  0
C  C147  1  0.82702625  0.54309308  0.78536054  1  0.419251  0  0.106388  0.231666  0  3.982942  0
C  C148  1  0.04171303  0.21458238  0.75752703  1  0.434553  0  0.105878  0.2282  0  3.983222  0
C  C149  1  0.28387356  0.24243373  0.45693873  1  0.460026  0  0.106647  0.231396  0  3.984777  0
C  C150  1  0.51350746  0.67511324  0.24897315  1  0.038695  0  -0.024431  -0.055513  0  3.998088  0
C  C151  1  0.26473592  0.75103354  0.42625988  1  -0.0103  0  -0.023586  -0.055349  0  3.99763  0
C  C152  1  0.83876410  0.57377769  0.32480236  1  0.012725  0  -0.025061  -0.053221  0  3.996931  0
C  C153  1  0.48649821  0.32488827  0.75102958  1  0.039232  0  -0.024493  -0.055605  0  3.99797  0
C  C154  1  0.73526551  0.24896687  0.57373780  1  -0.010701  0  -0.023558  -0.05539  0  3.997768  0
C  C155  1  0.16123305  0.42621783  0.67518944  1  0.012702  0  -0.025084  -0.053439  0  3.997282  0
C  C156  1  0.31191482  0.47923570  0.31778291  1  0.430214  0  0.110865  0.223298  0  3.96765  0
C  C157  1  0.99433499  0.68239610  0.16159900  1  0.401403  0  0.10915  0.220748  0  3.968347  0
C  C158  1  0.83294715  0.83843613  0.52085431  1  0.40703  0  0.11346  0.22636  0  3.968021  0
C  C159  1  0.68808201  0.52076689  0.68221629  1  0.430116  0  0.110903  0.223436  0  3.967774  0
C  C160  1  0.00566687  0.31760704  0.83839902  1  0.401777  0  0.109055  0.220661  0  3.968368  0
C  C161  1  0.16705820  0.16156483  0.47915047  1  0.407405  0  0.113383  0.226097  0  3.967839  0
C  C162  1  0.76984633  0.26030556  0.99191038  1  0.014127  0  -0.029946  -0.178342  0  4.022287  0
C  C163  1  0.77734761  0.00806474  0.26856266  1  0.031893  0  -0.032888  -0.183448  0  4.025765  0
C  C164  1  0.50902397  0.73155543  0.73971899  1  0.009755  0  -0.033123  -0.181721  0  4.023702  0
C  C165  1  0.23016127  0.73969594  0.00809112  1  0.014876  0  -0.029858  -0.17822  0  4.022103  0
C  C166  1  0.22267005  0.99194004  0.73144494  1  0.031904  0  -0.033025  -0.183571  0  4.025772  0
C  C167  1  0.49097157  0.26843900  0.26027822  1  0.009128  0  -0.033079  -0.181646  0  4.02333  0
C  C168  1  0.68705323  0.00377540  0.71379055  1  1.543576  0  0.210283  0.580056  0  4.208443  0
C  C169  1  0.97320318  0.28604281  0.28998742  1  1.560509  0  0.211231  0.580759  0  4.210682  0
C  C170  1  0.68334582  0.71011036  0.99627773  1  1.55905  0  0.211136  0.581308  0  4.208049  0
C  C171  1  0.31292754  0.99621794  0.28620721  1  1.544348  0  0.21034  0.580334  0  4.208196  0
C  C172  1  0.02680154  0.71395870  0.71001569  1  1.560518  0  0.211339  0.580891  0  4.210591  0
C  C173  1  0.31665173  0.28988243  0.00371939  1  1.559392  0  0.211079  0.581267  0  4.20794  0
C  C174  1  0.73733729  0.32647172  0.01390711  1  0.44865  0  0.106135  0.213393  0  3.984369  0
C  C175  1  0.72269131  0.98610062  0.31273791  1  0.424883  0  0.108714  0.216259  0  3.983365  0
C  C176  1  0.41019216  0.68729169  0.67357261  1  0.439217  0  0.110253  0.216705  0  3.979778  0
C  C177  1  0.26266748  0.67352979  0.98609322  1  0.448505  0  0.106061  0.213367  0  3.984386  0
C  C178  1  0.27731770  0.01390198  0.68726747  1  0.425603  0  0.108724  0.216242  0  3.983402  0
C  C179  1  0.58980421  0.31270056  0.32642229  1  0.439315  0  0.110311  0.216714  0  3.979855  0
C  C180  1  0.48990866  0.68709828  0.31518350  1  -0.108667  0  -0.081755  -0.079052  0  3.993211  0
C  C181  1  0.17487689  0.68483710  0.37199807  1  -0.049273  0  -0.080557  -0.080242  0  3.992464  0
C  C182  1  0.80288530  0.62793899  0.31281807  1  -0.079591  0  -0.082845  -0.082322  0  3.993903  0
C  C183  1  0.51008229  0.31290976  0.68482278  1  -0.109363  0  -0.081794  -0.079159  0  3.993168  0
C  C184  1  0.82511675  0.31516659  0.62799902  1  -0.049661  0  -0.080598  -0.080053  0  3.992224  0
C  C185  1  0.19711698  0.37206143  0.68718434  1  -0.079575  0  -0.082856  -0.082227  0  3.993785  0
C  C186  1  0.70490610  0.07301497  0.78294549  1  -0.0133  0  -0.023416  -0.044594  0  3.987029  0
C  C187  1  0.92184907  0.21686135  0.28999364  1  -0.025355  0  -0.023987  -0.046011  0  3.989075  0
C  C188  1  0.63189390  0.71008162  0.92706761  1  -0.032669  0  -0.023467  -0.04503  0  3.988665  0
C  C189  1  0.29507643  0.92698164  0.21704786  1  -0.01349  0  -0.023328  -0.044457  0  3.986955  0
C  C190  1  0.07816828  0.78313907  0.71001288  1  -0.024947  0  -0.02392  -0.04582  0  3.988942  0
C  C191  1  0.36810305  0.28991553  0.07292864  1  -0.032352  0  -0.023507  -0.045267  0  3.988856  0
C  C192  1  0.47802116  0.60380189  0.18984738  1  -0.078872  0  -0.085764  -0.088818  0  3.997153  0
C  C193  1  0.28820125  0.81018211  0.41413028  1  -0.024618  0  -0.087936  -0.091643  0  4.001774  0
C  C194  1  0.87478388  0.58606830  0.39614220  1  -0.071189  0  -0.087281  -0.093051  0  3.999849  0
C  C195  1  0.52198264  0.39620724  0.81015960  1  -0.077282  0  -0.085725  -0.088675  0  3.996882  0
C  C196  1  0.71179743  0.18981830  0.58586296  1  -0.024827  0  -0.087935  -0.091585  0  4.001967  0
C  C197  1  0.12521217  0.41393103  0.60385963  1  -0.071723  0  -0.087311  -0.09296  0  3.999763  0
C  C198  1  0.83079413  0.26262310  0.05678408  1  0.427287  0  0.101002  0.214477  0  4.013778  0
C  C199  1  0.77386754  0.94318166  0.20610941  1  0.441409  0  0.102682  0.216496  0  4.009646  0
C  C200  1  0.56781890  0.79398274  0.73722502  1  0.429641  0  0.101713  0.21568  0  4.01253  0
C  C201  1  0.16920304  0.73737840  0.94321790  1  0.426441  0  0.101107  0.214526  0  4.013571  0
C  C202  1  0.22614960  0.05682203  0.79389625  1  0.441198  0  0.102614  0.216569  0  4.009688  0
C  C203  1  0.43218165  0.20600842  0.26276975  1  0.430025  0  0.101668  0.215539  0  4.012668  0
C  C204  1  0.74535367  0.19855097  0.91786135  1  -0.013184  0  -0.005164  0.11095  0  4.030483  0
C  C205  1  0.82703792  0.08207538  0.28080466  1  -0.037794  0  -0.004627  0.11236  0  4.024473  0
C  C206  1  0.54647121  0.71938851  0.80154214  1  -0.007712  0  -0.003731  0.111783  0  4.025249  0
C  C207  1  0.25463626  0.80145108  0.08213746  1  -0.014087  0  -0.005061  0.111064  0  4.03051  0
C  C208  1  0.17298130  0.91792885  0.71920562  1  -0.037566  0  -0.00441  0.112502  0  4.024354  0
C  C209  1  0.45352883  0.28060537  0.19845290  1  -0.00803  0  -0.003736  0.111762  0  4.025215  0
C  C210  1  0.38497578  0.55801233  0.26124244  1  -0.011582  0  -0.001128  0.113586  0  4.029629  0
C  C211  1  0.12374281  0.73883493  0.29697135  1  0.00279  0  -0.003785  0.111814  0  4.029614  0
C  C212  1  0.82709792  0.70309994  0.44190750  1  0.015201  0  -0.002932  0.111444  0  4.029138  0
C  C213  1  0.61501690  0.44198972  0.73876126  1  -0.010856  0  -0.001127  0.113569  0  4.029695  0
C  C214  1  0.87625922  0.26116658  0.70302408  1  0.029938  0  -0.003669  0.11194  0  4.029536  0
C  C215  1  0.17290737  0.29689884  0.55809209  1  0.014967  0  -0.002894  0.111488  0  4.029083  0
C  C216  1  0.57794184  0.73775409  0.24191983  1  1.539284  0  0.213634  0.583055  0  4.196855  0
C  C217  1  0.33634462  0.75808434  0.49593301  1  1.530122  0  0.212326  0.580657  0  4.199789  0
C  C218  1  0.84053207  0.50406545  0.26217077  1  1.536984  0  0.210506  0.578626  0  4.201336  0
C  C219  1  0.42206391  0.26225340  0.75808983  1  1.53851  0  0.213541  0.583109  0  4.197048  0
C  C220  1  0.66365034  0.24191444  0.50406242  1  1.530337  0  0.212466  0.580762  0  4.199552  0
C  C221  1  0.15947260  0.49593387  0.73782623  1  1.53666  0  0.21076  0.579039  0  4.20057  0
C  C222  1  0.42702356  0.62909776  0.32140858  1  -0.082476  0  -0.08981  -0.138921  0  3.964332  0
C  C223  1  0.10577561  0.67860451  0.30778278  1  -0.069348  0  -0.089887  -0.136809  0  3.962897  0
C  C224  1  0.79793051  0.69214482  0.37079116  1  -0.001102  0  -0.08738  -0.134518  0  3.960716  0
C  C225  1  0.57297168  0.37091300  0.67859467  1  -0.08254  0  -0.089857  -0.138867  0  3.964234  0
C  C226  1  0.89422235  0.32139645  0.69221298  1  -0.068999  0  -0.089911  -0.136876  0  3.96288  0
C  C227  1  0.20207905  0.30785886  0.62921476  1  -0.000847  0  -0.087397  -0.13454  0  3.960725  0
C  C228  1  0.41484251  0.54573107  0.19593697  1  -0.005036  0  -0.094676  -0.147718  0  3.985174  0
C  C229  1  0.21882579  0.80413088  0.35002628  1  -0.046315  0  -0.092276  -0.144019  0  3.986709  0
C  C230  1  0.86954663  0.65018425  0.45420818  1  -0.032174  0  -0.091515  -0.14202  0  3.984882  0
C  C231  1  0.58516004  0.45427752  0.80407150  1  -0.005311  0  -0.094554  -0.147722  0  3.985361  0
C  C232  1  0.78117464  0.19587117  0.64996833  1  -0.073676  0  -0.092295  -0.14407  0  3.987046  0
C  C233  1  0.13046459  0.34981126  0.54579045  1  -0.03154  0  -0.091544  -0.142183  0  3.984446  0
C  C234  1  0.10474205  0.45750872  0.14864971  1  -0.042446  0  -0.240504  -0.442664  0  3.955008  0
C  C235  1  0.95568541  0.85130180  0.30905942  1  -0.061752  0  -0.240214  -0.44105  0  3.955101  0
C  C236  1  0.64737916  0.69100721  0.54249115  1  -0.054986  0  -0.240885  -0.443334  0  3.956296  0
C  C237  1  0.89525330  0.54249279  0.85134839  1  -0.042393  0  -0.240556  -0.44275  0  3.954974  0
C  C238  1  0.04431997  0.14870080  0.69093820  1  -0.061629  0  -0.240163  -0.440864  0  3.955086  0
C  C239  1  0.35262967  0.30899103  0.45750711  1  -0.055371  0  -0.240881  -0.4433  0  3.956238  0
C  C240  1  0.67116044  0.35515300  0.97039331  1  -0.066966  0  -0.229254  -0.425344  0  3.96359  0
C  C241  1  0.69987965  0.02956524  0.38494744  1  -0.002223  0  -0.23127  -0.428226  0  3.962942  0
C  C242  1  0.31535789  0.61505451  0.64494197  1  -0.034538  0  -0.231732  -0.430029  0  3.965719  0
C  C243  1  0.32884597  0.64485178  0.02960865  1  -0.066814  0  -0.22938  -0.425628  0  3.963498  0
C  C244  1  0.30012218  0.97043627  0.61505774  1  -0.002089  0  -0.231249  -0.428264  0  3.962984  0
C  C245  1  0.68463979  0.38494046  0.35505708  1  -0.034461  0  -0.231781  -0.430214  0  3.965748  0
C  C246  1  0.61987591  0.14895134  0.88027404  1  -0.043735  0  -0.092176  -0.13729  0  3.960541  0
C  C247  1  0.73929591  0.11968909  0.26879145  1  -0.045054  0  -0.091305  -0.137878  0  3.960914  0
C  C248  1  0.47074441  0.73140032  0.85121336  1  -0.010297  0  -0.090701  -0.135752  0  3.958238  0
C  C249  1  0.38011769  0.85105071  0.11973114  1  -0.042502  0  -0.092212  -0.13727  0  3.960727  0
C  C250  1  0.26072098  0.88032004  0.73122365  1  -0.045513  0  -0.091483  -0.13799  0  3.960366  0
C  C251  1  0.52925736  0.26859901  0.14878710  1  -0.010642  0  -0.090674  -0.135775  0  3.958274  0
C  C252  1  0.88536946  0.20723991  0.06646329  1  -0.029915  0  -0.234496  -0.429312  0  3.963319  0
C  C253  1  0.81899524  0.93347129  0.14107180  1  -0.063691  0  -0.231873  -0.426207  0  3.959802  0
C  C254  1  0.67794968  0.85906557  0.79247964  1  -0.053327  0  -0.232253  -0.42665  0  3.962716  0
C  C255  1  0.11462682  0.79276160  0.93353536  1  -0.029972  0  -0.234557  -0.429383  0  3.963403  0
C  C256  1  0.18101935  0.06653676  0.85893609  1  -0.063892  0  -0.231868  -0.426399  0  3.959729  0
C  C257  1  0.32204496  0.14092886  0.20751564  1  -0.053022  0  -0.232344  -0.426721  0  3.962884  0
C  C258  1  0.42354420  0.50364415  0.38259030  1  -0.06951  0  -0.225558  -0.423984  0  3.952424  0
C  C259  1  0.04097788  0.61753044  0.12110274  1  -0.067015  0  -0.223545  -0.422651  0  3.953765  0
C  C260  1  0.92016034  0.87889163  0.49646298  1  -0.063126  0  -0.223882  -0.421187  0  3.953316  0
C  C261  1  0.57645737  0.49635464  0.61740617  1  -0.069644  0  -0.225518  -0.424035  0  3.952218  0
C  C262  1  0.95902139  0.38246943  0.87889449  1  -0.06704  0  -0.223494  -0.422527  0  3.953835  0
C  C263  1  0.07984647  0.12111042  0.50354382  1  -0.063578  0  -0.223917  -0.421342  0  3.953315  0
C  C264  1  0.60048942  0.08602641  0.81416585  1  -0.027367  0  -0.090325  -0.087658  0  3.986576  0
C  C265  1  0.78617552  0.18568980  0.27184024  1  -0.01967  0  -0.088932  -0.086259  0  3.987409  0
C  C266  1  0.51447126  0.72827331  0.91413557  1  -0.039555  0  -0.090113  -0.088603  0  3.984622  0
C  C267  1  0.39950173  0.91397074  0.18583641  1  -0.027606  0  -0.090323  -0.087591  0  3.986757  0
C  C268  1  0.21382779  0.81431116  0.72817227  1  -0.019773  0  -0.088898  -0.086335  0  3.987434  0
C  C269  1  0.48553032  0.27172928  0.08586311  1  -0.038953  0  -0.090031  -0.088425  0  3.984452  0
C  C270  1  0.82887285  0.12393014  0.81879269  1  -0.069705  0  -0.088062  -0.095958  0  4.002483  0
C  C271  1  0.00983583  0.18099135  0.30500475  1  -0.102436  0  -0.088089  -0.096194  0  4.000349  0
C  C272  1  0.70486205  0.69507398  0.87612974  1  -0.055072  0  -0.088817  -0.09519  0  4.004082  0
C  C273  1  0.17111164  0.87606483  0.18120288  1  -0.069457  0  -0.088105  -0.096191  0  4.0025  0
C  C274  1  0.99017460  0.81901397  0.69499920  1  -0.102779  0  -0.088137  -0.096286  0  3.999995  0
C  C275  1  0.29513319  0.30491990  0.12386859  1  -0.054868  0  -0.088694  -0.094922  0  4.003816  0
C  C276  1  0.84954018  0.18542837  0.88626678  1  -0.05554  0  -0.095591  -0.142765  0  3.983805  0
C  C277  1  0.96283157  0.11354976  0.29906999  1  0.002108  0  -0.095385  -0.141788  0  3.978204  0
C  C278  1  0.66390908  0.70103236  0.81463309  1  -0.05364  0  -0.095247  -0.143713  0  3.982159  0
C  C279  1  0.15045584  0.81456878  0.11372893  1  -0.055971  0  -0.095598  -0.142722  0  3.983786  0
C  C280  1  0.03718462  0.88645393  0.70093605  1  0.029083  0  -0.095441  -0.141869  0  3.97852  0
C  C281  1  0.33607570  0.29895389  0.18536224  1  -0.053744  0  -0.095298  -0.143772  0  3.982084  0
N  N282  1  0.11485357  0.41370971  0.23739468  1  -0.799643  0  -0.274502  -0.268104  0  3.521078  0
N  N283  1  0.87743686  0.76265141  0.17650959  1  -0.786478  0  -0.27468  -0.266787  0  3.521105  0
N  N284  1  0.70122077  0.82349026  0.58629156  1  -0.793311  0  -0.274339  -0.266264  0  3.519506  0
N  N285  1  0.88514563  0.58628635  0.76260313  1  -0.799482  0  -0.27454  -0.268227  0  3.521068  0
N  N286  1  0.12256353  0.23735064  0.82348687  1  -0.785873  0  -0.274781  -0.26695  0  3.520788  0
N  N287  1  0.29877214  0.17650471  0.41370939  1  -0.793422  0  -0.274243  -0.266168  0  3.51981  0
N  N288  1  0.77735838  0.36385522  0.08745158  1  -0.866597  0  -0.278277  -0.147763  0  3.67969  0
N  N289  1  0.68939401  0.91257058  0.27664355  1  -0.858371  0  -0.280102  -0.150512  0  3.678206  0
N  N290  1  0.41293106  0.72330775  0.63605428  1  -0.85055  0  -0.281457  -0.151032  0  3.681198  0
N  N291  1  0.22264464  0.63614465  0.91254738  1  -0.866545  0  -0.278381  -0.147872  0  3.679734  0
N  N292  1  0.31060874  0.08743256  0.72335734  1  -0.858344  0  -0.280002  -0.150301  0  3.678323  0
N  N293  1  0.58706278  0.27668504  0.36393879  1  -0.850808  0  -0.281522  -0.151106  0  3.681438  0
N  N294  1  0.83388200  0.32606761  0.11411201  1  -0.789023  0  -0.270851  -0.253717  0  3.551361  0
N  N295  1  0.71959853  0.88588715  0.21226297  1  -0.795893  0  -0.272247  -0.254046  0  3.55185  0
N  N296  1  0.50736983  0.78773352  0.67373191  1  -0.787944  0  -0.271333  -0.253096  0  3.551713  0
N  N297  1  0.16611885  0.67393553  0.88588919  1  -0.788938  0  -0.270788  -0.253718  0  3.551223  0
N  N298  1  0.28040747  0.11411490  0.78773725  1  -0.796113  0  -0.272196  -0.254093  0  3.552189  0
N  N299  1  0.49262518  0.21225982  0.32626430  1  -0.787845  0  -0.271204  -0.252811  0  3.551675  0
N  N300  1  0.19993075  0.42798333  0.29962493  1  -0.843986  0  -0.27971  -0.150632  0  3.677652  0
N  N301  1  0.90045555  0.70050674  0.12851586  1  -0.858106  0  -0.278559  -0.148809  0  3.67415  0
N  N302  1  0.77216268  0.87149179  0.57209037  1  -0.854432  0  -0.283128  -0.15417  0  3.678952  0
N  N303  1  0.80006674  0.57201491  0.70037233  1  -0.844058  0  -0.279653  -0.150647  0  3.677842  0
N  N304  1  0.09954276  0.29949695  0.87148490  1  -0.858095  0  -0.278546  -0.148723  0  3.673911  0
N  N305  1  0.22783837  0.12850808  0.42791214  1  -0.854324  0  -0.283088  -0.153882  0  3.679098  0
O  O306  1  0.58751891  0.95097683  0.69881202  1  -1.185699  0  -0.334346  -0.559004  0  2.370302  0
O  O307  1  0.88860659  0.30113217  0.25232762  1  -1.175272  0  -0.335209  -0.558725  0  2.371023  0
O  O308  1  0.63661522  0.74787393  0.04909871  1  -1.188827  0  -0.33418  -0.558469  0  2.372132  0
O  O309  1  0.41247365  0.04902140  0.30119504  1  -1.186087  0  -0.334534  -0.559315  0  2.37017  0
O  O310  1  0.11139166  0.69886389  0.74767058  1  -1.17539  0  -0.335252  -0.558802  0  2.371062  0
O  O311  1  0.36339457  0.25212812  0.95090138  1  -1.189273  0  -0.333986  -0.558251  0  2.372006  0
O  O312  1  0.58144103  0.72214782  0.17664308  1  -1.176265  0  -0.337118  -0.563983  0  2.369843  0
O  O313  1  0.40522474  0.82334945  0.54554922  1  -1.183474  0  -0.336329  -0.561653  0  2.371666  0
O  O314  1  0.85977061  0.45447475  0.27782487  1  -1.179508  0  -0.335628  -0.561061  0  2.372101  0
O  O315  1  0.41857432  0.27785805  0.82336574  1  -1.176039  0  -0.336983  -0.563963  0  2.369872  0
O  O316  1  0.59477567  0.17664879  0.45444365  1  -1.183568  0  -0.33632  -0.561659  0  2.371693  0
O  O317  1  0.14022721  0.54552403  0.72216989  1  -1.179407  0  -0.33569  -0.561111  0  2.372023  0
O  O318  1  0.62430394  0.80022722  0.29806893  1  -1.191883  0  -0.32476  -0.556037  0  2.171937  0
O  O319  1  0.32642051  0.70197107  0.50230051  1  -1.185425  0  -0.325347  -0.555502  0  2.171599  0
O  O320  1  0.82412555  0.49765281  0.19965425  1  -1.185617  0  -0.322537  -0.553207  0  2.172765  0
O  O321  1  0.37569416  0.19978572  0.70194161  1  -1.191403  0  -0.324726  -0.556014  0  2.172173  0
O  O322  1  0.67357637  0.29802771  0.49769369  1  -1.185172  0  -0.325423  -0.555521  0  2.171513  0
O  O323  1  0.17586463  0.50234597  0.80034355  1  -1.185478  0  -0.322737  -0.553553  0  2.172388  0
O  O324  1  0.76764160  0.00082025  0.67671788  1  -1.180974  0  -0.323182  -0.553019  0  2.160338  0
O  O325  1  0.09087361  0.32307626  0.32406667  1  -1.193751  0  -0.32255  -0.553158  0  2.160343  0
O  O326  1  0.76688061  0.67601106  0.99916945  1  -1.183238  0  -0.32392  -0.554778  0  2.158102  0
O  O327  1  0.23233237  0.99918180  0.32327441  1  -1.181308  0  -0.323041  -0.552989  0  2.160538  0
O  O328  1  0.90913725  0.67692416  0.67593323  1  -1.193679  0  -0.32262  -0.553215  0  2.160266  0
O  O329  1  0.23310517  0.32397520  0.00082318  1  -1.183102  0  -0.324099  -0.554932  0  2.15811  0
