# generated using pymatgen
data_CdH28C20(N5O3)2
_symmetry_space_group_name_H-M   'P 1'
_cell_length_a   10.25205582
_cell_length_b   10.25204110
_cell_length_c   15.33428269
_cell_angle_alpha   102.04882051
_cell_angle_beta   102.04864001
_cell_angle_gamma   107.18298684
_symmetry_Int_Tables_number   1
_chemical_formula_structural   CdH28C20(N5O3)2
_chemical_formula_sum   'Cd2 H56 C40 N20 O12'
_cell_volume   1441.39802290
_cell_formula_units_Z   2
loop_
 _symmetry_equiv_pos_site_id
 _symmetry_equiv_pos_as_xyz
  1  'x, y, z'
loop_
 _atom_site_type_symbol
 _atom_site_label
 _atom_site_symmetry_multiplicity
 _atom_site_fract_x
 _atom_site_fract_y
 _atom_site_fract_z
 _atom_site_occupancy
 _atom_site_hle17_bader_spin_density
 _atom_site_hle17_ddec_charge
 _atom_site_hle17_ddec_spin_density
 _atom_site_hle17_ddec_sum_bond_order
 _atom_site_hle17_magmom
 _atom_site_hse06_10hf_bader_spin_density
 _atom_site_hse06_10hf_ddec_charge
 _atom_site_hse06_10hf_ddec_spin_density
 _atom_site_hse06_10hf_ddec_sum_bond_order
 _atom_site_hse06_10hf_magmom
 _atom_site_hse06_bader_spin_density
 _atom_site_hse06_ddec_charge
 _atom_site_hse06_ddec_spin_density
 _atom_site_hse06_ddec_sum_bond_order
 _atom_site_hse06_magmom
 _atom_site_pbe_bader_spin_density
 _atom_site_pbe_cm5_charge
 _atom_site_pbe_ddec_charge
 _atom_site_pbe_ddec_spin_density
 _atom_site_pbe_ddec_sum_bond_order
 _atom_site_pbe_magmom
Cd  Cd0  1  0.79106466  0.20893034  0.75000103  1  0  1.058673  0  1.743559  0  0  0.848983  0  2.207464  0  0  0.900153  0  2.163137  0  0  0.82395  0.811862  0  2.241377  0
Cd  Cd1  1  0.20893223  0.79106630  0.25000257  1  0  1.058638  0  1.743637  0  0  0.848939  0  2.207458  0  0  0.900106  0  2.163138  0  0  0.823921  0.811815  0  2.241359  0
H  H2  1  0.56648519  0.31258575  0.90936511  1  0  0.111619  0  0.957604  0  0  0.12736  0  1.027597  0  0  0.129084  0  1.027474  0  0  0.089765  0.125995  0  1.027843  0
H  H3  1  0.31257950  0.56648278  0.40936264  1  0  0.111536  0  0.957666  0  0  0.127304  0  1.027641  0  0  0.129025  0  1.02752  0  0  0.089748  0.12594  0  1.027882  0
H  H4  1  0.43351306  0.68742059  0.09063357  1  0  0.111553  0  0.957663  0  0  0.127312  0  1.027655  0  0  0.129038  0  1.02753  0  0  0.089735  0.12595  0  1.027896  0
H  H5  1  0.68741676  0.43351181  0.59063731  1  0  0.111671  0  0.957596  0  0  0.127399  0  1.027607  0  0  0.129127  0  1.027479  0  0  0.089779  0.126035  0  1.027851  0
H  H6  1  0.56566161  0.13647757  0.87111495  1  0  0.12421  0  0.929948  0  0  0.145168  0  0.986458  0  0  0.147047  0  0.985775  0  0  0.098635  0.143619  0  0.98731  0
H  H7  1  0.13647370  0.56566030  0.37111118  1  0  0.124135  0  0.929919  0  0  0.145065  0  0.986487  0  0  0.146943  0  0.985807  0  0  0.098588  0.143514  0  0.987337  0
H  H8  1  0.43433821  0.86352766  0.12888772  1  0  0.124218  0  0.92986  0  0  0.145147  0  0.986404  0  0  0.147025  0  0.985724  0  0  0.098644  0.143603  0  0.987248  0
H  H9  1  0.86352360  0.43433435  0.62888697  1  0  0.124227  0  0.929904  0  0  0.145176  0  0.986416  0  0  0.147054  0  0.985735  0  0  0.098651  0.14363  0  0.987263  0
H  H10  1  0.40508990  0.16527769  0.87955326  1  0  0.12277  0  0.927597  0  0  0.147313  0  0.979024  0  0  0.148759  0  0.979051  0  0  0.099734  0.146137  0  0.97915  0
H  H11  1  0.16527207  0.40508661  0.37954748  1  0  0.122713  0  0.927625  0  0  0.147279  0  0.979025  0  0  0.148727  0  0.979051  0  0  0.099731  0.146102  0  0.979156  0
H  H12  1  0.59491163  0.83472968  0.12045061  1  0  0.122744  0  0.927593  0  0  0.147299  0  0.979011  0  0  0.148747  0  0.979038  0  0  0.099727  0.146129  0  0.979141  0
H  H13  1  0.83472456  0.59490905  0.62045203  1  0  0.1228  0  0.927549  0  0  0.147361  0  0.978956  0  0  0.148808  0  0.978983  0  0  0.099754  0.146189  0  0.979084  0
H  H14  1  0.22890706  0.31481434  0.55639408  1  0  0.123731  0  0.932503  0  0  0.146982  0  0.985367  0  0  0.148524  0  0.985244  0  0  0.101614  0.145734  0  0.985747  0
H  H15  1  0.31481682  0.22891497  0.05638951  1  0  0.123797  0  0.932485  0  0  0.147048  0  0.985337  0  0  0.148594  0  0.985209  0  0  0.101652  0.145809  0  0.985707  0
H  H16  1  0.77108895  0.68518240  0.44360418  1  0  0.123731  0  0.932512  0  0  0.146991  0  0.985364  0  0  0.148536  0  0.985237  0  0  0.101601  0.145747  0  0.985739  0
H  H17  1  0.68519185  0.77109267  0.94361022  1  0  0.123832  0  0.93244  0  0  0.147089  0  0.985293  0  0  0.148635  0  0.985165  0  0  0.101658  0.145843  0  0.985672  0
H  H18  1  0.19953431  0.13624231  0.49604987  1  0  0.131979  0  0.954147  0  0  0.152556  0  1.015037  0  0  0.154086  0  1.015142  0  0  0.102184  0.151502  0  1.014898  0
H  H19  1  0.13624731  0.19954033  0.99604580  1  0  0.132036  0  0.954196  0  0  0.152611  0  1.015064  0  0  0.154139  0  1.015175  0  0  0.102239  0.151556  0  1.014925  0
H  H20  1  0.80046607  0.86375558  0.50394920  1  0  0.13203  0  0.95414  0  0  0.152603  0  1.015024  0  0  0.154135  0  1.015127  0  0  0.10219  0.151548  0  1.01489  0
H  H21  1  0.86376296  0.80046312  0.00395291  1  0  0.13204  0  0.954258  0  0  0.152623  0  1.015103  0  0  0.154155  0  1.015206  0  0  0.102245  0.151568  0  1.014964  0
H  H22  1  0.34533927  0.27648280  0.49110736  1  0  0.118934  0  0.944758  0  0  0.139329  0  1.005273  0  0  0.140979  0  1.005098  0  0  0.096103  0.13808  0  1.005424  0
H  H23  1  0.27648423  0.34534675  0.99110429  1  0  0.118974  0  0.944793  0  0  0.139357  0  1.005312  0  0  0.141007  0  1.005137  0  0  0.096099  0.138111  0  1.00546  0
H  H24  1  0.65466144  0.72351613  0.50889321  1  0  0.118957  0  0.944757  0  0  0.139346  0  1.005274  0  0  0.140994  0  1.0051  0  0  0.09609  0.138098  0  1.005425  0
H  H25  1  0.72352174  0.65466185  0.00889715  1  0  0.119004  0  0.944746  0  0  0.139389  0  1.005255  0  0  0.141039  0  1.00508  0  0  0.096086  0.138141  0  1.00541  0
H  H26  1  0.01018605  0.06558754  0.84010194  1  0  0.117525  0  0.96733  0  0  0.135972  0  1.030394  0  0  0.13743  0  1.030647  0  0  0.093435  0.134875  0  1.030231  0
H  H27  1  0.06558574  0.01018464  0.34010194  1  0  0.117526  0  0.967357  0  0  0.135977  0  1.030415  0  0  0.137436  0  1.030667  0  0  0.093441  0.134881  0  1.030249  0
H  H28  1  0.98980730  0.93441020  0.15989608  1  0  0.117535  0  0.967305  0  0  0.135982  0  1.030349  0  0  0.13744  0  1.0306  0  0  0.093445  0.134885  0  1.030189  0
H  H29  1  0.93441102  0.98981737  0.65989916  1  0  0.117582  0  0.967288  0  0  0.136033  0  1.03034  0  0  0.137492  0  1.030591  0  0  0.093497  0.134936  0  1.030176  0
H  H30  1  0.00421992  0.89602452  0.85603259  1  0  0.135596  0  0.949135  0  0  0.155278  0  1.006976  0  0  0.157094  0  1.006227  0  0  0.096284  0.153908  0  1.007566  0
H  H31  1  0.89602229  0.00421855  0.35603113  1  0  0.135606  0  0.949058  0  0  0.155313  0  1.006905  0  0  0.157128  0  1.006156  0  0  0.096295  0.153925  0  1.007518  0
H  H32  1  0.99577884  0.10397753  0.14396880  1  0  0.135621  0  0.949064  0  0  0.155301  0  1.006928  0  0  0.157116  0  1.006179  0  0  0.096276  0.153929  0  1.00752  0
H  H33  1  0.10397782  0.99578457  0.64397126  1  0  0.135635  0  0.949086  0  0  0.155334  0  1.006932  0  0  0.157149  0  1.006183  0  0  0.0963  0.153947  0  1.007542  0
H  H34  1  0.93891399  0.00752201  0.92649118  1  0  0.120995  0  0.956492  0  0  0.138109  0  1.023713  0  0  0.140164  0  1.022234  0  0  0.095377  0.136533  0  1.024888  0
H  H35  1  0.00751793  0.93891319  0.42648986  1  0  0.120994  0  0.956512  0  0  0.138101  0  1.023752  0  0  0.140155  0  1.022275  0  0  0.095382  0.136526  0  1.024922  0
H  H36  1  0.06108045  0.99247895  0.07350681  1  0  0.121038  0  0.956456  0  0  0.138113  0  1.023691  0  0  0.140167  0  1.022213  0  0  0.095378  0.136539  0  1.024865  0
H  H37  1  0.99248228  0.06109314  0.57351171  1  0  0.121034  0  0.956472  0  0  0.138141  0  1.023704  0  0  0.140195  0  1.022226  0  0  0.095394  0.136567  0  1.024877  0
H  H38  1  0.44300104  0.59592180  0.56541335  1  0  0.113769  0  0.951976  0  0  0.132254  0  1.01749  0  0  0.134294  0  1.016479  0  0  0.09392  0.130952  0  1.018045  0
H  H39  1  0.59593099  0.44299797  0.06541070  1  0  0.113793  0  0.951982  0  0  0.132216  0  1.017538  0  0  0.13425  0  1.016528  0  0  0.093883  0.130911  0  1.0181  0
H  H40  1  0.55699790  0.40406871  0.43458183  1  0  0.113749  0  0.952072  0  0  0.132235  0  1.017563  0  0  0.13427  0  1.016554  0  0  0.093912  0.130934  0  1.01812  0
H  H41  1  0.40407360  0.55700640  0.93458797  1  0  0.113811  0  0.951967  0  0  0.132247  0  1.017509  0  0  0.134283  0  1.016499  0  0  0.093915  0.130946  0  1.018067  0
H  H42  1  0.36732694  0.62601671  0.65761003  1  0  0.127688  0  0.919509  0  0  0.150518  0  0.97159  0  0  0.152814  0  0.970343  0  0  0.103243  0.148936  0  0.97252  0
H  H43  1  0.62602798  0.36732434  0.15760767  1  0  0.127676  0  0.919518  0  0  0.150469  0  0.971647  0  0  0.152766  0  0.970394  0  0  0.103223  0.148885  0  0.972579  0
H  H44  1  0.63267135  0.37397484  0.34238520  1  0  0.127646  0  0.919574  0  0  0.150466  0  0.971661  0  0  0.152763  0  0.97041  0  0  0.103226  0.148885  0  0.972591  0
H  H45  1  0.37397860  0.63268006  0.84239195  1  0  0.127681  0  0.91954  0  0  0.150478  0  0.97166  0  0  0.152773  0  0.970412  0  0  0.103228  0.148902  0  0.972585  0
H  H46  1  0.47767848  0.52034622  0.65871768  1  0  0.116636  0  0.964522  0  0  0.134498  0  1.030817  0  0  0.135473  0  1.032325  0  0  0.094716  0.134037  0  1.029456  0
H  H47  1  0.52035188  0.47767015  0.15871450  1  0  0.116636  0  0.964402  0  0  0.134487  0  1.030696  0  0  0.135426  0  1.032238  0  0  0.094673  0.134051  0  1.029317  0
H  H48  1  0.52232011  0.47964322  0.34127729  1  0  0.116603  0  0.964478  0  0  0.134453  0  1.030781  0  0  0.135401  0  1.032313  0  0  0.094677  0.133995  0  1.029422  0
H  H49  1  0.47964961  0.52233097  0.84128389  1  0  0.116659  0  0.964415  0  0  0.134512  0  1.030709  0  0  0.135452  0  1.032249  0  0  0.094711  0.134062  0  1.029345  0
H  H50  1  0.53323273  0.90229739  0.64623778  1  0  0.302365  0  0.911472  0  0  0.276413  0  0.98691  0  0  0.284996  0  0.979072  0  0  0.32111  0.270509  0  0.992295  0
H  H51  1  0.90230503  0.53323570  0.14624016  1  0  0.302278  0  0.911546  0  0  0.276366  0  0.986948  0  0  0.284944  0  0.979116  0  0  0.321115  0.270463  0  0.992333  0
H  H52  1  0.46676062  0.09769413  0.35375347  1  0  0.302222  0  0.911769  0  0  0.276394  0  0.987055  0  0  0.28497  0  0.979235  0  0  0.32116  0.270493  0  0.992434  0
H  H53  1  0.09769924  0.46677075  0.85376007  1  0  0.302332  0  0.911572  0  0  0.276411  0  0.986897  0  0  0.28499  0  0.979067  0  0  0.321136  0.270505  0  0.992283  0
H  H54  1  0.52950160  0.16628802  0.56621969  1  0  0.283386  0  0.961275  0  0  0.25611  0  1.038713  0  0  0.265598  0  1.030539  0  0  0.308419  0.249302  0  1.044774  0
H  H55  1  0.16628973  0.52951064  0.06621622  1  0  0.283541  0  0.961076  0  0  0.256131  0  1.038594  0  0  0.26562  0  1.030423  0  0  0.30841  0.249324  0  1.044652  0
H  H56  1  0.47049474  0.83371287  0.43378379  1  0  0.283398  0  0.961133  0  0  0.256084  0  1.038628  0  0  0.265576  0  1.030453  0  0  0.308374  0.249277  0  1.044682  0
H  H57  1  0.83371416  0.47049473  0.93378445  1  0  0.283358  0  0.96124  0  0  0.256061  0  1.038721  0  0  0.265546  0  1.03055  0  0  0.308396  0.249257  0  1.04478  0
C  C58  1  0.47022832  0.20967509  0.76204737  1  0  0.226702  0  3.749674  0  0  0.21657  0  4.022791  0  0  0.226989  0  4.040969  0  0  0.09399  0.209644  0  4.010491  0
C  C59  1  0.20967453  0.47022917  0.26204359  1  0  0.226698  0  3.749746  0  0  0.216523  0  4.02292  0  0  0.226942  0  4.041098  0  0  0.09399  0.209605  0  4.010613  0
C  C60  1  0.52977006  0.79032586  0.23795511  1  0  0.226735  0  3.749708  0  0  0.216663  0  4.022732  0  0  0.227083  0  4.040907  0  0  0.094007  0.209728  0  4.010449  0
C  C61  1  0.79032714  0.52976661  0.73795601  1  0  0.226681  0  3.749709  0  0  0.216577  0  4.02278  0  0  0.226994  0  4.040954  0  0  0.093947  0.209651  0  4.010486  0
C  C62  1  0.35804448  0.24297645  0.71177441  1  0  -0.152675  0  3.82935  0  0  -0.144855  0  4.080748  0  0  -0.153696  0  4.10727  0  0  -0.034909  -0.139355  0  4.063277  0
C  C63  1  0.24297153  0.35804393  0.21176771  1  0  -0.152753  0  3.829314  0  0  -0.144895  0  4.080703  0  0  -0.153739  0  4.107228  0  0  -0.034905  -0.139404  0  4.06324  0
C  C64  1  0.64195027  0.75702551  0.28822639  1  0  -0.152711  0  3.829533  0  0  -0.144884  0  4.080907  0  0  -0.153726  0  4.10743  0  0  -0.034926  -0.139389  0  4.06345  0
C  C65  1  0.75702790  0.64195398  0.78822927  1  0  -0.152735  0  3.829371  0  0  -0.144903  0  4.080781  0  0  -0.153736  0  4.107291  0  0  -0.034916  -0.139414  0  4.063323  0
C  C66  1  0.37255354  0.22623122  0.62157060  1  0  0.233729  0  3.721612  0  0  0.216322  0  3.995239  0  0  0.226539  0  4.01347  0  0  0.105463  0.210084  0  3.982134  0
C  C67  1  0.22623254  0.37256214  0.12156748  1  0  0.233768  0  3.721771  0  0  0.216351  0  3.995387  0  0  0.226568  0  4.013615  0  0  0.105468  0.210113  0  3.982293  0
C  C68  1  0.62743641  0.77376536  0.37842806  1  0  0.23377  0  3.721754  0  0  0.21632  0  3.995422  0  0  0.226538  0  4.013651  0  0  0.105519  0.210088  0  3.982317  0
C  C69  1  0.77376760  0.62744101  0.87843363  1  0  0.233782  0  3.721442  0  0  0.216353  0  3.995098  0  0  0.226569  0  4.013323  0  0  0.105424  0.210127  0  3.981994  0
C  C70  1  0.50384540  0.20591141  0.86067440  1  0  -0.346182  0  3.717373  0  0  -0.42212  0  3.954496  0  0  -0.425168  0  3.961169  0  0  -0.234215  -0.419731  0  3.950176  0
C  C71  1  0.20590577  0.50384401  0.36067089  1  0  -0.345911  0  3.717278  0  0  -0.42186  0  3.954443  0  0  -0.424906  0  3.96112  0  0  -0.234127  -0.419472  0  3.950118  0
C  C72  1  0.49615476  0.79409487  0.13932912  1  0  -0.346061  0  3.717249  0  0  -0.422054  0  3.954405  0  0  -0.425102  0  3.961077  0  0  -0.234166  -0.419667  0  3.950082  0
C  C73  1  0.79408847  0.49615051  0.63932940  1  0  -0.346284  0  3.717345  0  0  -0.422241  0  3.954519  0  0  -0.425288  0  3.961183  0  0  -0.234257  -0.419853  0  3.950197  0
C  C74  1  0.28234673  0.23970522  0.53679973  1  0  -0.353578  0  3.711041  0  0  -0.429693  0  3.946377  0  0  -0.432782  0  3.953643  0  0  -0.232291  -0.427259  0  3.941066  0
C  C75  1  0.23970772  0.28235269  0.03679630  1  0  -0.353802  0  3.711093  0  0  -0.429894  0  3.946445  0  0  -0.432988  0  3.953706  0  0  -0.2324  -0.427467  0  3.94113  0
C  C76  1  0.71765365  0.76029266  0.46319999  1  0  -0.353696  0  3.710964  0  0  -0.429792  0  3.94631  0  0  -0.432885  0  3.953569  0  0  -0.232296  -0.427362  0  3.941  0
C  C77  1  0.76029750  0.71765062  0.96320296  1  0  -0.353847  0  3.711193  0  0  -0.429964  0  3.946523  0  0  -0.433058  0  3.953782  0  0  -0.232376  -0.427528  0  3.941214  0
C  C78  1  0.80306338  0.90174118  0.78784641  1  0  0.239852  0  3.750297  0  0  0.230849  0  4.018446  0  0  0.241133  0  4.03688  0  0  0.102684  0.223631  0  4.006239  0
C  C79  1  0.90174142  0.80306187  0.28784404  1  0  0.23985  0  3.750351  0  0  0.230843  0  4.018469  0  0  0.241128  0  4.036902  0  0  0.102681  0.223628  0  4.006258  0
C  C80  1  0.19693229  0.09825450  0.21215100  1  0  0.239908  0  3.750624  0  0  0.230841  0  4.01879  0  0  0.241127  0  4.037221  0  0  0.102672  0.223618  0  4.006589  0
C  C81  1  0.09825602  0.19694224  0.71215876  1  0  0.239833  0  3.750602  0  0  0.230882  0  4.018616  0  0  0.241169  0  4.037043  0  0  0.102652  0.223664  0  4.006406  0
C  C82  1  0.24555058  0.28092313  0.74301882  1  0  -0.156085  0  3.832828  0  0  -0.149222  0  4.083451  0  0  -0.158204  0  4.110473  0  0  -0.035726  -0.143762  0  4.065907  0
C  C83  1  0.28091263  0.24554333  0.24301280  1  0  -0.156068  0  3.832757  0  0  -0.149145  0  4.083448  0  0  -0.158124  0  4.110468  0  0  -0.035726  -0.143682  0  4.065903  0
C  C84  1  0.75444821  0.71907894  0.25698128  1  0  -0.15608  0  3.832861  0  0  -0.149205  0  4.083536  0  0  -0.158185  0  4.11056  0  0  -0.035709  -0.143745  0  4.065998  0
C  C85  1  0.71908513  0.75444386  0.75698693  1  0  -0.15595  0  3.832534  0  0  -0.149112  0  4.08328  0  0  -0.158091  0  4.110306  0  0  -0.03562  -0.143645  0  4.065733  0
C  C86  1  0.59246366  0.74226819  0.69415893  1  0  0.225624  0  3.731863  0  0  0.209436  0  4.004593  0  0  0.219476  0  4.022868  0  0  0.103101  0.203889  0  3.991308  0
C  C87  1  0.74227294  0.59246322  0.19415864  1  0  0.225442  0  3.732308  0  0  0.209303  0  4.004955  0  0  0.21936  0  4.023196  0  0  0.103041  0.203755  0  3.991677  0
C  C88  1  0.40753512  0.25772766  0.30583439  1  0  0.225598  0  3.731678  0  0  0.209358  0  4.004482  0  0  0.21942  0  4.02272  0  0  0.103104  0.203819  0  3.991191  0
C  C89  1  0.25772967  0.40754424  0.80584215  1  0  0.225497  0  3.732312  0  0  0.209388  0  4.004908  0  0  0.219449  0  4.023146  0  0  0.103073  0.203845  0  3.991624  0
C  C90  1  0.94743349  0.97138640  0.85587351  1  0  -0.369273  0  3.723321  0  0  -0.447194  0  3.962963  0  0  -0.450326  0  3.969385  0  0  -0.243211  -0.444576  0  3.958434  0
C  C91  1  0.97138708  0.94743549  0.35587440  1  0  -0.369254  0  3.723251  0  0  -0.447207  0  3.962908  0  0  -0.450338  0  3.969329  0  0  -0.243226  -0.444576  0  3.958385  0
C  C92  1  0.05256458  0.02861355  0.14412617  1  0  -0.369344  0  3.723327  0  0  -0.447226  0  3.962987  0  0  -0.450356  0  3.969407  0  0  -0.243209  -0.444607  0  3.95846  0
C  C93  1  0.02861444  0.05257189  0.64412948  1  0  -0.369388  0  3.723325  0  0  -0.447352  0  3.962972  0  0  -0.450481  0  3.969386  0  0  -0.243283  -0.444722  0  3.958455  0
C  C94  1  0.46333356  0.61441861  0.64103496  1  0  -0.351103  0  3.734434  0  0  -0.429223  0  3.977431  0  0  -0.432209  0  3.98411  0  0  -0.232738  -0.427057  0  3.972045  0
C  C95  1  0.61442634  0.46332898  0.14103188  1  0  -0.351082  0  3.734441  0  0  -0.429119  0  3.977436  0  0  -0.43207  0  3.984138  0  0  -0.232636  -0.426968  0  3.972045  0
C  C96  1  0.53666675  0.38557298  0.35896057  1  0  -0.350993  0  3.73449  0  0  -0.429069  0  3.977485  0  0  -0.43203  0  3.984182  0  0  -0.232664  -0.426908  0  3.972105  0
C  C97  1  0.38557690  0.53667432  0.85896578  1  0  -0.351148  0  3.734549  0  0  -0.429219  0  3.977529  0  0  -0.432172  0  3.984229  0  0  -0.232739  -0.427074  0  3.97214  0
N  N98  1  0.54820514  0.17620507  0.70609822  1  0  -0.325932  0  3.126464  0  0  -0.278731  0  3.415971  0  0  -0.295255  0  3.433165  0  0  -0.265322  -0.267764  0  3.405218  0
N  N99  1  0.17620757  0.54820682  0.20609641  1  0  -0.325959  0  3.126595  0  0  -0.278736  0  3.416081  0  0  -0.29526  0  3.433273  0  0  -0.265333  -0.267765  0  3.405324  0
N  N100  1  0.45179418  0.82379274  0.29390329  1  0  -0.325912  0  3.126466  0  0  -0.278728  0  3.41595  0  0  -0.295252  0  3.433142  0  0  -0.265314  -0.267757  0  3.405192  0
N  N101  1  0.82379003  0.45178883  0.79390453  1  0  -0.32591  0  3.126483  0  0  -0.278704  0  3.415961  0  0  -0.295229  0  3.433155  0  0  -0.265274  -0.267734  0  3.405211  0
N  N102  1  0.48754782  0.18770744  0.62188231  1  0  -0.208391  0  3.490939  0  0  -0.157275  0  3.737251  0  0  -0.170535  0  3.755944  0  0  -0.291174  -0.148341  0  3.724739  0
N  N103  1  0.18771436  0.48754921  0.12188365  1  0  -0.208461  0  3.491096  0  0  -0.157316  0  3.737432  0  0  -0.170574  0  3.756126  0  0  -0.291186  -0.148391  0  3.724925  0
N  N104  1  0.51245562  0.81229056  0.37811526  1  0  -0.208394  0  3.491173  0  0  -0.157276  0  3.737515  0  0  -0.170534  0  3.756209  0  0  -0.291177  -0.148341  0  3.724987  0
N  N105  1  0.81229323  0.51244660  0.87812138  1  0  -0.208333  0  3.490795  0  0  -0.157254  0  3.737179  0  0  -0.170516  0  3.75588  0  0  -0.291162  -0.148334  0  3.724677  0
N  N106  1  0.73182454  0.97395427  0.74614577  1  0  -0.313223  0  3.143377  0  0  -0.259327  0  3.428766  0  0  -0.276694  0  3.446027  0  0  -0.26275  -0.247343  0  3.417967  0
N  N107  1  0.97395879  0.73182497  0.24614614  1  0  -0.313228  0  3.143307  0  0  -0.259296  0  3.428675  0  0  -0.276664  0  3.445938  0  0  -0.262701  -0.247309  0  3.417867  0
N  N108  1  0.26817355  0.02604258  0.25384955  1  0  -0.31332  0  3.143174  0  0  -0.259398  0  3.428596  0  0  -0.276764  0  3.445861  0  0  -0.262771  -0.247413  0  3.417793  0
N  N109  1  0.02604104  0.26818028  0.75385588  1  0  -0.313219  0  3.143329  0  0  -0.259304  0  3.428676  0  0  -0.276672  0  3.445937  0  0  -0.262736  -0.247318  0  3.417872  0
N  N110  1  0.60487968  0.87580782  0.69033568  1  0  -0.201782  0  3.475984  0  0  -0.152738  0  3.720752  0  0  -0.164684  0  3.737921  0  0  -0.286541  -0.144732  0  3.708895  0
N  N111  1  0.87581465  0.60488012  0.19033506  1  0  -0.201522  0  3.475943  0  0  -0.152576  0  3.720745  0  0  -0.164527  0  3.737918  0  0  -0.28649  -0.144565  0  3.708883  0
N  N112  1  0.39512614  0.12417957  0.30966396  1  0  -0.201508  0  3.475713  0  0  -0.152577  0  3.720481  0  0  -0.164534  0  3.737648  0  0  -0.286489  -0.144572  0  3.70862  0
N  N113  1  0.12418631  0.39512836  0.80966564  1  0  -0.201572  0  3.475831  0  0  -0.152657  0  3.720579  0  0  -0.16461  0  3.737748  0  0  -0.286486  -0.144647  0  3.708717  0
N  N114  1  0.71561325  0.14015444  0.49749999  1  0  0.73247  0  4.10636  0  0  0.744401  0  4.429443  0  0  0.772833  0  4.434142  0  0  0.102796  0.725312  0  4.425657  0
N  N115  1  0.14015634  0.71561688  0.99750210  1  0  0.706828  0  4.14306  0  0  0.744475  0  4.429383  0  0  0.772908  0  4.434084  0  0  0.102829  0.72538  0  4.425608  0
N  N116  1  0.28439468  0.85984793  0.50249692  1  0  0.732617  0  4.106284  0  0  0.74449  0  4.429416  0  0  0.772933  0  4.434115  0  0  0.102816  0.725393  0  4.425643  0
N  N117  1  0.85984541  0.28438521  0.00250104  1  0  0.73253  0  4.106444  0  0  0.74444  0  4.429537  0  0  0.772871  0  4.434246  0  0  0.102774  0.725343  0  4.42576  0
O  O118  1  0.75094988  0.11550246  0.57547120  1  0  -0.520415  0  1.786663  0  0  -0.495406  0  2.036897  0  0  -0.512669  0  2.028387  0  0  -0.212535  -0.483157  0  2.042776  0
O  O119  1  0.11549819  0.75094973  0.07547229  1  0  -0.511927  0  1.796726  0  0  -0.495419  0  2.036889  0  0  -0.512679  0  2.028376  0  0  -0.212531  -0.483168  0  2.04277  0
O  O120  1  0.24906363  0.88451682  0.42453550  1  0  -0.52034  0  1.786847  0  0  -0.495327  0  2.037122  0  0  -0.512564  0  2.028568  0  0  -0.212458  -0.483076  0  2.042999  0
O  O121  1  0.88449696  0.24904473  0.92453204  1  0  -0.520381  0  1.786894  0  0  -0.495397  0  2.037174  0  0  -0.512637  0  2.02862  0  0  -0.212476  -0.48315  0  2.04307  0
O  O122  1  0.79395278  0.14717109  0.44549146  1  0  -0.426698  0  1.689401  0  0  -0.422905  0  1.886862  0  0  -0.433433  0  1.880693  0  0  -0.179791  -0.415702  0  1.891217  0
O  O123  1  0.14718020  0.79396327  0.94549633  1  0  -0.418005  0  1.700089  0  0  -0.422965  0  1.886813  0  0  -0.433493  0  1.880642  0  0  -0.179837  -0.415759  0  1.891175  0
O  O124  1  0.20603666  0.85281806  0.55450670  1  0  -0.42688  0  1.688862  0  0  -0.423121  0  1.886358  0  0  -0.433652  0  1.880182  0  0  -0.179969  -0.415911  0  1.890715  0
O  O125  1  0.85281988  0.20604293  0.05451107  1  0  -0.426774  0  1.689328  0  0  -0.422993  0  1.886796  0  0  -0.433523  0  1.880626  0  0  -0.179823  -0.415785  0  1.891157  0
O  O126  1  0.59445814  0.15642943  0.47307521  1  0  -0.513604  0  1.810456  0  0  -0.491287  0  2.038167  0  0  -0.507794  0  2.030753  0  0  -0.203404  -0.479887  0  2.043299  0
O  O127  1  0.15642984  0.59446306  0.97307391  1  0  -0.505356  0  1.820281  0  0  -0.491265  0  2.038239  0  0  -0.507776  0  2.030825  0  0  -0.203374  -0.479862  0  2.04337  0
O  O128  1  0.40553816  0.84356830  0.52692650  1  0  -0.513686  0  1.810791  0  0  -0.491216  0  2.038459  0  0  -0.507751  0  2.031054  0  0  -0.203323  -0.479815  0  2.043596  0
O  O129  1  0.84357704  0.40554235  0.02692851  1  0  -0.513646  0  1.810444  0  0  -0.491232  0  2.038074  0  0  -0.507733  0  2.030651  0  0  -0.203406  -0.479829  0  2.043208  0
