# generated using pymatgen
data_Mn2H3C9O6F
_symmetry_space_group_name_H-M   'P 1'
_cell_length_a   5.22177358
_cell_length_b   9.72260735
_cell_length_c   11.01995226
_cell_angle_alpha   115.19627094
_cell_angle_beta   102.02040100
_cell_angle_gamma   93.73279465
_symmetry_Int_Tables_number   1
_chemical_formula_structural   Mn2H3C9O6F
_chemical_formula_sum   'Mn4 H6 C18 O12 F2'
_cell_volume   487.61274404
_cell_formula_units_Z   2
loop_
 _symmetry_equiv_pos_site_id
 _symmetry_equiv_pos_as_xyz
  1  'x, y, z'
loop_
 _atom_site_type_symbol
 _atom_site_label
 _atom_site_symmetry_multiplicity
 _atom_site_fract_x
 _atom_site_fract_y
 _atom_site_fract_z
 _atom_site_occupancy
 _atom_site_pbe_cm5_charge
 _atom_site_pbe_ddec_charge
 _atom_site_pbe_ddec_spin_density
 _atom_site_pbe_ddec_sum_bond_order
 _atom_site_pbe_magmom
Mn  Mn0  1  0.07915174  0.20955770  0.11181395  1  0.608685  1.072531  4.687412  2.247206  4.498
Mn  Mn1  1  0.53232384  0.90223288  0.11166190  1  0.607994  1.071203  4.683081  2.247959  4.498
Mn  Mn2  1  0.92084709  0.79044296  0.88818708  1  0.608698  1.072574  4.687401  2.247148  4.498
Mn  Mn3  1  0.46767695  0.09776779  0.88833841  1  0.608004  1.071205  4.683082  2.247942  4.498
H  H4  1  0.71070505  0.46068250  0.92150689  1  0.112071  0.113334  -0.000532  0.993932  0.0
H  H5  1  0.28929344  0.53931702  0.07849186  1  0.112076  0.113313  -0.000532  0.993953  0.0
H  H6  1  0.79275689  0.11141208  0.53345507  1  0.115759  0.122779  -0.000293  0.99048  0.0
H  H7  1  0.24076139  0.42190108  0.53334286  1  0.116205  0.12413  -0.000296  0.989138  0.0
H  H8  1  0.20724424  0.88858974  0.46654571  1  0.115751  0.122767  -0.000293  0.99043  0.0
H  H9  1  0.75923940  0.57809959  0.46665655  1  0.116212  0.124132  -0.000296  0.98915  0.0
C  C10  1  0.43162436  0.18160961  0.36338086  1  0.23826  0.615268  0.02424  4.166764  0.023
C  C11  1  0.56837574  0.81838875  0.63661943  1  0.238225  0.615213  0.02424  4.166812  0.023
C  C12  1  0.94724881  0.21552015  0.81724647  1  0.242779  0.614738  0.024779  4.126933  0.022
C  C13  1  0.37034741  0.60170521  0.81719865  1  0.242885  0.615088  0.024809  4.122917  0.022
C  C14  1  0.05275232  0.78448167  0.18275431  1  0.242814  0.614808  0.024778  4.126974  0.022
C  C15  1  0.62965304  0.39829431  0.18280030  1  0.242859  0.615029  0.024809  4.122982  0.022
C  C16  1  0.50934021  0.25929103  0.51874274  1  -0.010094  -0.038966  -0.001789  3.956574  -0.002
C  C17  1  0.49065990  0.74070733  0.48125665  1  -0.010101  -0.039012  -0.001789  3.956682  -0.002
C  C18  1  0.65413189  0.40406864  0.80822576  1  -0.064794  -0.094961  0.013814  3.929474  0.01
C  C19  1  0.34586660  0.59593087  0.19177299  1  -0.064804  -0.094937  0.013813  3.929443  0.01
C  C20  1  0.70082594  0.20756014  0.59110320  1  -0.056519  -0.073496  0.014494  3.880404  0.012
C  C21  1  0.39035819  0.38344724  0.59104520  1  -0.056524  -0.074893  0.014475  3.881111  0.012
C  C22  1  0.29917681  0.79244053  0.40889732  1  -0.056521  -0.073479  0.014494  3.880379  0.012
C  C23  1  0.60964029  0.61655227  0.40895537  1  -0.056545  -0.074935  0.014475  3.881137  0.012
C  C24  1  0.76562505  0.27659270  0.73614515  1  -0.010666  -0.043764  0.00063  3.994838  -0.001
C  C25  1  0.47062908  0.45950191  0.73608928  1  -0.009824  -0.042524  0.000627  3.992333  -0.001
C  C26  1  0.23437574  0.72340797  0.26385517  1  -0.010681  -0.043802  0.000631  3.994855  -0.001
C  C27  1  0.52936745  0.54049760  0.26390836  1  -0.009799  -0.042439  0.000627  3.992267  -0.001
O  O28  1  0.24778257  0.22800252  0.30278527  1  -0.308864  -0.56833  0.053094  2.363134  0.033
O  O29  1  0.55502474  0.07469863  0.30277875  1  -0.308644  -0.56766  0.053031  2.36266  0.033
O  O30  1  0.75221754  0.77199584  0.69721593  1  -0.308844  -0.568303  0.053093  2.363104  0.033
O  O31  1  0.44497699  0.92529858  0.69722127  1  -0.308634  -0.567613  0.053029  2.362676  0.033
O  O32  1  0.87075866  0.20893968  0.91992490  1  -0.307987  -0.626263  0.078324  2.480781  0.042
O  O33  1  0.54956197  0.71097696  0.91983450  1  -0.308366  -0.626747  0.078378  2.481612  0.042
O  O34  1  0.12924017  0.79106099  0.08007523  1  -0.307989  -0.626273  0.078324  2.480782  0.042
O  O35  1  0.45043652  0.28902255  0.08016516  1  -0.308362  -0.626738  0.078378  2.481642  0.042
O  O36  1  0.15691902  0.17457668  0.78539322  1  -0.279356  -0.514915  0.052241  2.292409  0.038
O  O37  1  0.12883283  0.61084317  0.78543586  1  -0.27987  -0.515627  0.052322  2.290064  0.038
O  O38  1  0.84308177  0.82542399  0.21460710  1  -0.279373  -0.514954  0.052243  2.292462  0.038
O  O39  1  0.87116566  0.38915635  0.21456289  1  -0.279844  -0.515582  0.052319  2.290107  0.038
F  F40  1  0.76438687  0.01468046  0.02901215  1  -0.283125  -0.560945  0.147163  1.233256  0.104
F  F41  1  0.23561196  0.98532021  0.97098707  1  -0.283148  -0.560954  0.147163  1.233233  0.104
