# generated using pymatgen
data_Zn4H24C18N6O13
_symmetry_space_group_name_H-M   'P 1'
_cell_length_a   17.54405117
_cell_length_b   17.91882904
_cell_length_c   18.18887157
_cell_angle_alpha   62.43301327
_cell_angle_beta   61.92246358
_cell_angle_gamma   61.85842039
_symmetry_Int_Tables_number   1
_chemical_formula_structural   Zn4H24C18N6O13
_chemical_formula_sum   'Zn8 H48 C36 N12 O26'
_cell_volume   4230.23209268
_cell_formula_units_Z   2
loop_
 _symmetry_equiv_pos_site_id
 _symmetry_equiv_pos_as_xyz
  1  'x, y, z'
loop_
 _atom_site_type_symbol
 _atom_site_label
 _atom_site_symmetry_multiplicity
 _atom_site_fract_x
 _atom_site_fract_y
 _atom_site_fract_z
 _atom_site_occupancy
 _atom_site_pbe_bader_charge
 _atom_site_pbe_bader_spin_density
 _atom_site_pbe_cm5_charge
 _atom_site_pbe_ddec_charge
 _atom_site_pbe_ddec_spin_density
 _atom_site_pbe_ddec_sum_bond_order
 _atom_site_pbe_magmom
Zn  Zn0  1  0.12943745  0.93510609  0.94624085  1  1.30283  0  0.667034  0.956528  0  2.400448  0
Zn  Zn1  1  0.94767818  0.93668715  0.94459076  1  1.319226  0  0.668434  0.96266  0  2.355321  0
Zn  Zn2  1  0.95699432  0.11263929  0.94369050  1  1.303281  0  0.668869  0.957104  0  2.3775  0
Zn  Zn3  1  0.95166591  0.94436459  0.11707242  1  1.3164  0  0.669896  0.959211  0  2.35899  0
Zn  Zn4  1  0.36111549  0.52127929  0.52871876  1  1.294784  0  0.664082  0.950141  0  2.405049  0
Zn  Zn5  1  0.53051547  0.53117286  0.54018907  1  1.316167  0  0.672657  0.969484  0  2.351078  0
Zn  Zn6  1  0.53821810  0.52544659  0.36112419  1  1.317889  0  0.676564  0.971582  0  2.337565  0
Zn  Zn7  1  0.53859484  0.35145172  0.53304120  1  1.306467  0  0.672894  0.966893  0  2.358775  0
H  H8  1  0.22470337  0.84035175  0.71873151  1  0.016082  0  0.100597  0.052474  0  0.955554  0
H  H9  1  0.08349861  0.80973648  0.74915847  1  0.423291  0  0.294376  0.246393  0  0.957552  0
H  H10  1  0.16095064  0.69986067  0.67611820  1  0.066109  0  0.108434  0.09527  0  0.959031  0
H  H11  1  0.23150667  0.76824045  0.62792858  1  0.009626  0  0.083199  0.043929  0  0.990151  0
H  H12  1  0.24687393  0.59124772  0.77610600  1  0.049299  0  0.119928  0.093005  0  0.932989  0
H  H13  1  0.37224934  0.69283340  0.69626490  1  0.407043  0  0.286665  0.232758  0  0.97801  0
H  H14  1  0.30922628  0.73484126  0.82247936  1  0.05459  0  0.109354  0.095792  0  0.964319  0
H  H15  1  0.23656659  0.66888593  0.87337650  1  0.058902  0  0.102906  0.081327  0  0.961839  0
H  H16  1  0.25114976  0.15643094  0.83598787  1  0.029672  0  0.101546  0.054808  0  0.953043  0
H  H17  1  0.10533761  0.28198485  0.81309588  1  0.412287  0  0.293993  0.246946  0  0.960264  0
H  H18  1  0.17834676  0.38656539  0.69576167  1  0.071484  0  0.108529  0.095032  0  0.960524  0
H  H19  1  0.25519662  0.31021168  0.75760126  1  0.005808  0  0.084436  0.045578  0  0.988132  0
H  H20  1  0.25635770  0.30524858  0.59114327  1  0.05561  0  0.118499  0.091368  0  0.9331  0
H  H21  1  0.39084113  0.17804910  0.68151814  1  0.418135  0  0.286896  0.23415  0  0.979492  0
H  H22  1  0.32547393  0.06754281  0.73602227  1  0.077469  0  0.108539  0.0941  0  0.963521  0
H  H23  1  0.24557296  0.14119937  0.67812516  1  0.023576  0  0.10123  0.078626  0  0.965083  0
H  H24  1  0.22842715  0.70133194  0.16238197  1  0.031364  0  0.100957  0.053985  0  0.953702  0
H  H25  1  0.09211547  0.73608843  0.29358043  1  0.39541  0  0.295107  0.247094  0  0.956518  0
H  H26  1  0.17252515  0.66731221  0.39586358  1  0.045647  0  0.108388  0.09557  0  0.964086  0
H  H27  1  0.24037935  0.61346100  0.31264964  1  0.024811  0  0.083878  0.044833  0  0.986535  0
H  H28  1  0.25933020  0.76969489  0.32206240  1  0.09903  0  0.120073  0.092559  0  0.932028  0
H  H29  1  0.38158643  0.67838751  0.18905156  1  0.399185  0  0.288975  0.235193  0  0.971865  0
H  H30  1  0.31783679  0.80254305  0.08600130  1  0.042097  0  0.108656  0.094784  0  0.96509  0
H  H31  1  0.24905166  0.85989568  0.16560417  1  0.03129  0  0.101865  0.078692  0  0.963221  0
H  H32  1  0.86209136  0.15696237  0.71225096  1  0.026936  0  0.098552  0.049079  0  0.957369  0
H  H33  1  0.83590869  0.28894274  0.74933858  1  0.416353  0  0.295565  0.249114  0  0.955997  0
H  H34  1  0.72241671  0.39395029  0.68091729  1  0.067848  0  0.10939  0.096981  0  0.960072  0
H  H35  1  0.78885790  0.31071638  0.62624688  1  0.017046  0  0.081281  0.03973  0  0.992454  0
H  H36  1  0.60847877  0.32013116  0.77776589  1  0.060233  0  0.122075  0.095962  0  0.92889  0
H  H37  1  0.70521238  0.18429850  0.68882557  1  0.4084  0  0.286392  0.231236  0  0.979855  0
H  H38  1  0.74987448  0.07903701  0.81067479  1  0.04206  0  0.107575  0.09308  0  0.966865  0
H  H39  1  0.68568935  0.15895946  0.86815221  1  0.034739  0  0.102746  0.081165  0  0.962016  0
H  H40  1  0.71385744  0.84182716  0.16011046  1  0.020466  0  0.101393  0.055028  0  0.954686  0
H  H41  1  0.73934035  0.84137581  0.28740535  1  0.412122  0  0.295029  0.248532  0  0.956462  0
H  H42  1  0.66755292  0.73353444  0.39770812  1  0.053346  0  0.108574  0.09543  0  0.960765  0
H  H43  1  0.61918765  0.78328358  0.31151242  1  0.013813  0  0.083019  0.043301  0  0.990189  0
H  H44  1  0.77734235  0.61032762  0.34189591  1  0.053191  0  0.118718  0.090906  0  0.933677  0
H  H45  1  0.70244419  0.67843728  0.20076046  1  0.395398  0  0.287686  0.23534  0  0.976215  0
H  H46  1  0.82951402  0.72171565  0.09737614  1  0.044608  0  0.10896  0.094269  0  0.963325  0
H  H47  1  0.88072047  0.67570075  0.18011637  1  0.049858  0  0.101609  0.079281  0  0.96387  0
H  H48  1  0.87317527  0.22421501  0.15735082  1  0.028889  0  0.099476  0.050896  0  0.955031  0
H  H49  1  0.84166675  0.08980688  0.28611331  1  0.404665  0  0.294083  0.247655  0  0.959975  0
H  H50  1  0.73277622  0.16701664  0.39048711  1  0.07512  0  0.108393  0.096696  0  0.963865  0
H  H51  1  0.80303867  0.23473541  0.30935734  1  -0.006756  0  0.080985  0.03929  0  0.992524  0
H  H52  1  0.61926227  0.24927471  0.31612548  1  0.059022  0  0.122372  0.095707  0  0.92616  0
H  H53  1  0.72225934  0.37157544  0.18509484  1  0.380826  0  0.288264  0.233007  0  0.971151  0
H  H54  1  0.76045462  0.30827549  0.08023622  1  0.065973  0  0.108756  0.094925  0  0.965209  0
H  H55  1  0.69186789  0.23914960  0.15804607  1  0.041149  0  0.102922  0.081816  0  0.96233  0
C  C56  1  0.13047717  0.84486591  0.84394440  1  1.554671  0  0.23239  0.608441  0  4.121584  0
C  C57  1  0.19135822  0.79343309  0.77840101  1  0.353176  0  0.000953  -0.013753  0  3.931321  0
C  C58  1  0.20062317  0.72157784  0.68981496  1  0.289813  0  -0.069336  -0.061599  0  3.962677  0
C  C59  1  0.27882623  0.64022629  0.72048650  1  0.363006  0  0.005168  -0.014357  0  3.912355  0
C  C60  1  0.26868577  0.71259496  0.81064273  1  0.33147  0  -0.06693  -0.056884  0  3.958762  0
C  C61  1  0.34221760  0.59826843  0.64770384  1  1.568399  0  0.23472  0.615483  0  4.103934  0
C  C62  1  0.14923752  0.11221822  0.85461993  1  1.570922  0  0.232789  0.608755  0  4.120743  0
C  C63  1  0.21223478  0.16796346  0.79554250  1  0.332117  0  0.000709  -0.016774  0  3.931954  0
C  C64  1  0.21933787  0.31645750  0.71718299  1  0.30773  0  -0.069157  -0.060442  0  3.970918  0
C  C65  1  0.29237024  0.28716298  0.63596870  1  0.35756  0  0.004632  -0.014166  0  3.915243  0
C  C66  1  0.28324510  0.13709755  0.71496559  1  0.320012  0  -0.066731  -0.054074  0  3.957484  0
C  C67  1  0.35532819  0.34228900  0.59137158  1  1.559673  0  0.233118  0.611886  0  4.113454  0
C  C68  1  0.13585546  0.83022789  0.12710508  1  1.55105  0  0.233443  0.610041  0  4.11614  0
C  C69  1  0.19846861  0.76289571  0.18137116  1  0.344485  0  0.00108  -0.015454  0  3.930088  0
C  C70  1  0.21090218  0.67818963  0.32569574  1  0.28603  0  -0.070121  -0.060076  0  3.967756  0
C  C71  1  0.29029739  0.70995869  0.30115986  1  0.330289  0  0.006133  -0.014432  0  3.918171  0
C  C72  1  0.27861187  0.79429923  0.15562433  1  0.351432  0  -0.066363  -0.054188  0  3.958963  0
C  C73  1  0.35297063  0.63995473  0.35460518  1  1.546251  0  0.234558  0.612938  0  4.108755  0
C  C74  1  0.86557016  0.12031905  0.83920972  1  1.539908  0  0.231955  0.607545  0  4.1142  0
C  C75  1  0.81406392  0.17546193  0.77333660  1  0.34155  0  0.002154  -0.01226  0  3.929395  0
C  C76  1  0.74256599  0.32290525  0.69034127  1  0.275771  0  -0.069217  -0.058245  0  3.970594  0
C  C77  1  0.65695191  0.29816642  0.71964999  1  0.34942  0  0.005572  -0.015046  0  3.912467  0
C  C78  1  0.72913105  0.14953760  0.80332041  1  0.350375  0  -0.068506  -0.057082  0  3.96596  0
C  C79  1  0.61184678  0.35130109  0.64871149  1  1.563102  0  0.235875  0.614346  0  4.110196  0
C  C80  1  0.84041314  0.85668520  0.12451389  1  1.543964  0  0.23232  0.609051  0  4.112069  0
C  C81  1  0.77546195  0.80274139  0.18185612  1  0.356453  0  0.000545  -0.017721  0  3.928582  0
C  C82  1  0.68352952  0.74345327  0.32841514  1  0.294238  0  -0.069378  -0.060414  0  3.973187  0
C  C83  1  0.72085294  0.65219372  0.31416567  1  0.355753  0  0.004838  -0.013907  0  3.910693  0
C  C84  1  0.81546337  0.71180913  0.16616150  1  0.35385  0  -0.065819  -0.053114  0  3.957485  0
C  C85  1  0.64693599  0.60825009  0.36663755  1  1.545283  0  0.234846  0.611217  0  4.113519  0
C  C86  1  0.87054870  0.12986530  0.12075397  1  1.566112  0  0.234556  0.611086  0  4.108202  0
C  C87  1  0.82217572  0.19302242  0.17493633  1  0.346666  0  0.001064  -0.015403  0  3.930527  0
C  C88  1  0.75375788  0.20485416  0.32073869  1  0.291713  0  -0.071327  -0.058669  0  3.977679  0
C  C89  1  0.66985905  0.28086537  0.29640917  1  0.364851  0  0.006039  -0.014144  0  3.912866  0
C  C90  1  0.73882684  0.26933769  0.14942529  1  0.295495  0  -0.067028  -0.057097  0  3.961789  0
C  C91  1  0.62564330  0.34276688  0.35137087  1  1.558145  0  0.235664  0.61151  0  4.113228  0
N  N92  1  0.14193020  0.76138650  0.76024096  1  -1.091734  0  -0.490663  -0.386122  0  3.440668  0
N  N93  1  0.32861701  0.66149774  0.74945040  1  -1.090676  0  -0.493302  -0.382206  0  3.409457  0
N  N94  1  0.16109551  0.26114959  0.76395844  1  -1.090165  0  -0.493278  -0.386458  0  3.453613  0
N  N95  1  0.34220988  0.19205745  0.65698722  1  -1.079018  0  -0.49248  -0.384351  0  3.402868  0
N  N96  1  0.15121535  0.74760403  0.27477229  1  -1.060678  0  -0.490881  -0.386963  0  3.445515  0
N  N97  1  0.33944881  0.73424874  0.20761948  1  -1.053583  0  -0.492459  -0.382625  0  3.415125  0
N  N98  1  0.78451440  0.27016982  0.75915358  1  -1.09035  0  -0.491315  -0.387021  0  3.441452  0
N  N99  1  0.67569071  0.20308578  0.74381723  1  -1.077116  0  -0.493803  -0.383304  0  3.420914  0
N  N100  1  0.75399299  0.78563201  0.27451431  1  -1.067667  0  -0.491301  -0.386087  0  3.447309  0
N  N101  1  0.75561157  0.65770051  0.22220884  1  -1.083284  0  -0.493098  -0.385253  0  3.410604  0
N  N102  1  0.79159724  0.14674821  0.26802749  1  -1.061965  0  -0.492032  -0.388352  0  3.446192  0
N  N103  1  0.68938749  0.32858114  0.20303618  1  -1.050231  0  -0.491696  -0.381468  0  3.415467  0
O  O104  1  0.99546220  0.98214766  0.98833807  1  -1.222438  0  -0.571442  -1.028647  0  2.535794  0
O  O105  1  0.04436562  0.86345143  0.86805215  1  -1.168451  0  -0.311337  -0.53748  0  2.328012  0
O  O106  1  0.17288460  0.86619218  0.86810350  1  -1.186  0  -0.32013  -0.555082  0  2.35288  0
O  O107  1  0.41990392  0.60987452  0.60451323  1  -1.177476  0  -0.313542  -0.547333  0  2.317176  0
O  O108  1  0.31013353  0.55653150  0.63430370  1  -1.174496  0  -0.32067  -0.553193  0  2.3102  0
O  O109  1  0.06403236  0.15387535  0.87939584  1  -1.17783  0  -0.31349  -0.544132  0  2.357814  0
O  O110  1  0.18771456  0.02801224  0.87554872  1  -1.18003  0  -0.316958  -0.547011  0  2.32936  0
O  O111  1  0.43466945  0.30427628  0.59899841  1  -1.174419  0  -0.308918  -0.539357  0  2.326375  0
O  O112  1  0.32036600  0.42468148  0.55349639  1  -1.182777  0  -0.323447  -0.557753  0  2.314215  0
O  O113  1  0.05032321  0.85598457  0.16686082  1  -1.17271  0  -0.311374  -0.537712  0  2.333375  0
O  O114  1  0.17615953  0.85467662  0.04467936  1  -1.181145  0  -0.319001  -0.554133  0  2.350185  0
O  O115  1  0.43483498  0.60104758  0.31446290  1  -1.180834  0  -0.309281  -0.537756  0  2.322144  0
O  O116  1  0.31572434  0.62486783  0.43733988  1  -1.168858  0  -0.322466  -0.556746  0  2.327898  0
O  O117  1  0.89205894  0.16100785  0.85978110  1  -1.158741  0  -0.309466  -0.533936  0  2.33744  0
O  O118  1  0.87859686  0.03700350  0.86733962  1  -1.171103  0  -0.318239  -0.555214  0  2.342338  0
O  O119  1  0.60973525  0.30857013  0.61017621  1  -1.174964  0  -0.313516  -0.543463  0  2.335652  0
O  O120  1  0.58180522  0.43538986  0.63271872  1  -1.162255  0  -0.317094  -0.551848  0  2.326118  0
O  O121  1  0.85933116  0.88740411  0.16225203  1  -1.169585  0  -0.310926  -0.538632  0  2.345847  0
O  O122  1  0.86956107  0.86715215  0.04262692  1  -1.183074  0  -0.317519  -0.551506  0  2.324954  0
O  O123  1  0.61399664  0.59815356  0.32403365  1  -1.168157  0  -0.309365  -0.54027  0  2.350534  0
O  O124  1  0.62275705  0.58770694  0.44984934  1  -1.161892  0  -0.319346  -0.55344  0  2.316843  0
O  O125  1  0.89615023  0.04674649  0.16085587  1  -1.178819  0  -0.311577  -0.539908  0  2.336062  0
O  O126  1  0.88292846  0.16645600  0.03873244  1  -1.180824  0  -0.316416  -0.5492  0  2.335535  0
O  O127  1  0.61188554  0.42573991  0.31198778  1  -1.164565  0  -0.310212  -0.535618  0  2.335801  0
O  O128  1  0.60685594  0.30394068  0.43382558  1  -1.170969  0  -0.318633  -0.555317  0  2.344487  0
O  O129  1  0.49508397  0.48172681  0.48942925  1  -1.21202  0  -0.575807  -1.034399  0  2.546058  0
