# generated using pymatgen
data_ZnH14C18NO5
_symmetry_space_group_name_H-M   'P 1'
_cell_length_a   19.18236378
_cell_length_b   19.18230318
_cell_length_c   29.15304400
_cell_angle_alpha   109.19863829
_cell_angle_beta   109.19822009
_cell_angle_gamma   90.01810123
_symmetry_Int_Tables_number   1
_chemical_formula_structural   ZnH14C18NO5
_chemical_formula_sum   'Zn8 H112 C144 N8 O40'
_cell_volume   9496.21129507
_cell_formula_units_Z   8
loop_
 _symmetry_equiv_pos_site_id
 _symmetry_equiv_pos_as_xyz
  1  'x, y, z'
loop_
 _atom_site_type_symbol
 _atom_site_label
 _atom_site_symmetry_multiplicity
 _atom_site_fract_x
 _atom_site_fract_y
 _atom_site_fract_z
 _atom_site_occupancy
 _atom_site_pbe_bader_charge
 _atom_site_pbe_bader_spin_density
 _atom_site_pbe_cm5_charge
 _atom_site_pbe_ddec_charge
 _atom_site_pbe_ddec_spin_density
 _atom_site_pbe_ddec_sum_bond_order
 _atom_site_pbe_magmom
Zn  Zn0  1  0.19617395  0.87252649  0.74513277  1  1.281262  0  0.670765  0.818751  0  2.361846  0
Zn  Zn1  1  0.05382791  0.87747282  0.75486907  1  1.280075  0  0.670745  0.818601  0  2.361969  0
Zn  Zn2  1  0.54898859  0.87256007  0.74515380  1  1.277866  0  0.670889  0.819587  0  2.361983  0
Zn  Zn3  1  0.70101382  0.87744357  0.75484590  1  1.278961  0  0.670876  0.819591  0  2.361912  0
Zn  Zn4  1  0.12255867  0.29898979  0.24515368  1  1.277847  0  0.670867  0.81955  0  2.362027  0
Zn  Zn5  1  0.12744423  0.45101412  0.25484730  1  1.278993  0  0.670873  0.819519  0  2.361922  0
Zn  Zn6  1  0.12747281  0.80382726  0.25486556  1  1.280209  0  0.670785  0.818719  0  2.361917  0
Zn  Zn7  1  0.12252635  0.94617467  0.24513245  1  1.281158  0  0.67077  0.818695  0  2.361867  0
H  H8  1  0.27259536  0.78851299  0.66924784  1  0.088599  0  0.112467  0.100207  0  0.975006  0
H  H9  1  0.97738812  0.86926088  0.83072696  1  0.086846  0  0.11222  0.099689  0  0.975738  0
H  H10  1  0.97740539  0.96148245  0.83075574  1  0.089011  0  0.112476  0.100165  0  0.975096  0
H  H11  1  0.39665119  0.88077881  0.66923757  1  0.086039  0  0.112433  0.100229  0  0.974537  0
H  H12  1  0.85336661  0.96146200  0.83079454  1  0.081055  0  0.112769  0.100682  0  0.975098  0
H  H13  1  0.85335068  0.86921187  0.83076434  1  0.085983  0  0.112468  0.100341  0  0.974329  0
H  H14  1  0.27261505  0.88073525  0.66927569  1  0.086867  0  0.112192  0.099643  0  0.975726  0
H  H15  1  0.39663501  0.78852956  0.66920989  1  0.080934  0  0.112781  0.100695  0  0.975243  0
H  H16  1  0.03853905  0.14663354  0.16920615  1  0.081093  0  0.112733  0.100641  0  0.975055  0
H  H17  1  0.11922245  0.60335271  0.33076341  1  0.086019  0  0.112452  0.10023  0  0.974543  0
H  H18  1  0.21148436  0.72740909  0.33075155  1  0.08892  0  0.112481  0.100164  0  0.975098  0
H  H19  1  0.11926361  0.72738809  0.33072345  1  0.086956  0  0.112171  0.099597  0  0.975759  0
H  H20  1  0.21147069  0.60336950  0.33079001  1  0.080955  0  0.112779  0.100725  0  0.975202  0
H  H21  1  0.03851809  0.02259432  0.16924457  1  0.089005  0  0.112482  0.100184  0  0.975079  0
H  H22  1  0.13073998  0.02261149  0.16927435  1  0.086847  0  0.112203  0.099684  0  0.975732  0
H  H23  1  0.13078865  0.14664829  0.16923575  1  0.085977  0  0.112502  0.100394  0  0.974308  0
H  H24  1  0.31302482  0.98379416  0.74994368  1  0.069818  0  0.116426  0.105593  0  0.953149  0
H  H25  1  0.93699208  0.98397647  0.75009595  1  0.059349  0  0.116383  0.105427  0  0.95415  0
H  H26  1  0.93697570  0.76620526  0.75005581  1  0.069803  0  0.11642  0.105622  0  0.953173  0
H  H27  1  0.43694436  0.76608054  0.74990088  1  0.077887  0  0.11617  0.104834  0  0.95366  0
H  H28  1  0.81305044  0.76617485  0.75007063  1  0.071353  0  0.116498  0.105759  0  0.952608  0
H  H29  1  0.81306204  0.98392277  0.75010993  1  0.077262  0  0.116152  0.104799  0  0.953703  0
H  H30  1  0.31301307  0.76602777  0.74991196  1  0.059666  0  0.116411  0.105352  0  0.954335  0
H  H31  1  0.43694848  0.98382280  0.74992617  1  0.071316  0  0.11647  0.105751  0  0.952601  0
H  H32  1  0.23382486  0.18694937  0.24992923  1  0.071361  0  0.116465  0.10572  0  0.95263  0
H  H33  1  0.23392036  0.56305810  0.25009898  1  0.077886  0  0.116161  0.104828  0  0.953673  0
H  H34  1  0.01620578  0.68697711  0.25005602  1  0.069801  0  0.116421  0.105614  0  0.953137  0
H  H35  1  0.23397306  0.68698961  0.25008751  1  0.059596  0  0.116425  0.10541  0  0.954257  0
H  H36  1  0.01617994  0.56305335  0.25007307  1  0.071393  0  0.116491  0.105758  0  0.952657  0
H  H37  1  0.23379442  0.06302439  0.24994505  1  0.069829  0  0.116424  0.105584  0  0.953141  0
H  H38  1  0.01602439  0.06301196  0.24990643  1  0.05957  0  0.116404  0.105374  0  0.954294  0
H  H39  1  0.01607984  0.18694219  0.24989162  1  0.077381  0  0.11617  0.104817  0  0.953671  0
H  H40  1  0.34298075  0.96725378  0.80918085  1  0.084046  0  0.112705  0.101122  0  0.9812  0
H  H41  1  0.90701769  0.90821080  0.69083986  1  0.083369  0  0.112828  0.101072  0  0.981006  0
H  H42  1  0.90702212  0.78274838  0.69082095  1  0.084072  0  0.112718  0.101124  0  0.981254  0
H  H43  1  0.46623898  0.84183458  0.80912531  1  0.085102  0  0.112571  0.100555  0  0.980273  0
H  H44  1  0.78375151  0.78274983  0.69085695  1  0.086444  0  0.112754  0.10104  0  0.97993  0
H  H45  1  0.78376331  0.90817548  0.69088198  1  0.08519  0  0.11262  0.10066  0  0.980317  0
H  H46  1  0.34298314  0.84179430  0.80916599  1  0.083605  0  0.112795  0.101037  0  0.980885  0
H  H47  1  0.46625024  0.96725277  0.80914265  1  0.086472  0  0.112778  0.101057  0  0.979887  0
H  H48  1  0.21725077  0.21625097  0.30914383  1  0.086403  0  0.112784  0.101046  0  0.9799  0
H  H49  1  0.15816711  0.53376167  0.19087497  1  0.085081  0  0.112559  0.100587  0  0.980242  0
H  H50  1  0.03274514  0.65701979  0.19081825  1  0.084016  0  0.112683  0.101123  0  0.981189  0
H  H51  1  0.15820582  0.65701737  0.19083272  1  0.083556  0  0.112794  0.101049  0  0.980886  0
H  H52  1  0.03274746  0.53374908  0.19085694  1  0.086462  0  0.112769  0.101034  0  0.979879  0
H  H53  1  0.21725139  0.09297960  0.30917973  1  0.084062  0  0.112716  0.101122  0  0.981233  0
H  H54  1  0.09178991  0.09298620  0.30916227  1  0.083638  0  0.112844  0.101133  0  0.980886  0
H  H55  1  0.09182628  0.21624151  0.30911882  1  0.085198  0  0.112623  0.100609  0  0.980336  0
H  H56  1  0.30283497  0.08311725  0.86260023  1  0.08968  0  0.103323  0.10503  0  1.010324  0
H  H57  1  0.94711331  0.97039065  0.63737270  1  0.067604  0  0.10322  0.105181  0  1.009658  0
H  H58  1  0.94716446  0.66688584  0.63740187  1  0.089587  0  0.103296  0.104954  0  1.010319  0
H  H59  1  0.55974347  0.77941344  0.86259465  1  0.102868  0  0.103132  0.104834  0  1.009743  0
H  H60  1  0.69015616  0.66708520  0.63738358  1  0.103606  0  0.103391  0.10522  0  1.009525  0
H  H61  1  0.69025557  0.97058477  0.63740227  1  0.102951  0  0.103113  0.10486  0  1.009767  0
H  H62  1  0.30289079  0.77960226  0.86262702  1  0.067031  0  0.103223  0.105179  0  1.009681  0
H  H63  1  0.55984402  0.08291422  0.86261154  1  0.104073  0  0.103405  0.105232  0  1.009466  0
H  H64  1  0.33291047  0.30984477  0.36261395  1  0.103617  0  0.103407  0.105254  0  1.009467  0
H  H65  1  0.22058986  0.44025795  0.13740521  1  0.1029  0  0.103135  0.104806  0  1.009785  0
H  H66  1  0.91688182  0.69716404  0.13739824  1  0.089731  0  0.10327  0.104965  0  1.010309  0
H  H67  1  0.22039634  0.69711031  0.13737155  1  0.066951  0  0.103231  0.105211  0  1.009648  0
H  H68  1  0.91709020  0.44015368  0.13738821  1  0.104119  0  0.103411  0.105265  0  1.009469  0
H  H69  1  0.33311372  0.05283473  0.36260106  1  0.089647  0  0.103277  0.104947  0  1.010332  0
H  H70  1  0.02960743  0.05288972  0.36263029  1  0.067325  0  0.103217  0.105148  0  1.009665  0
H  H71  1  0.02941223  0.30974541  0.36259496  1  0.103029  0  0.103144  0.104842  0  1.009705  0
H  H72  1  0.35155064  0.20261769  0.93861936  1  0.093954  0  0.110536  0.114283  0  0.986457  0
H  H73  1  0.89855728  0.01392907  0.56137386  1  0.095549  0  0.110688  0.114247  0  0.98752  0
H  H74  1  0.89844655  0.54738623  0.56138273  1  0.093865  0  0.110513  0.114274  0  0.986431  0
H  H75  1  0.58708960  0.73581542  0.93856309  1  0.102898  0  0.110714  0.114427  0  0.986298  0
H  H76  1  0.66279044  0.54764311  0.56132309  1  0.091784  0  0.110635  0.114157  0  0.986122  0
H  H77  1  0.66290741  0.01418301  0.56143442  1  0.102913  0  0.110692  0.114384  0  0.986334  0
H  H78  1  0.35144912  0.73606990  0.93862907  1  0.095985  0  0.110657  0.114169  0  0.987548  0
H  H79  1  0.58720950  0.20235718  0.93867456  1  0.092002  0  0.110711  0.114242  0  0.986082  0
H  H80  1  0.45235189  0.33720504  0.43867538  1  0.091837  0  0.110675  0.114207  0  0.986003  0
H  H81  1  0.26418539  0.41290969  0.06143536  1  0.10285  0  0.110685  0.114366  0  0.986297  0
H  H82  1  0.79738235  0.64844766  0.06138053  1  0.093945  0  0.110538  0.114299  0  0.986417  0
H  H83  1  0.26392983  0.64855154  0.06136984  1  0.095913  0  0.110653  0.114187  0  0.987571  0
H  H84  1  0.79764763  0.41279251  0.06132728  1  0.092084  0  0.11066  0.114185  0  0.986049  0
H  H85  1  0.45261283  0.10155179  0.43861950  1  0.093503  0  0.110495  0.114259  0  0.986366  0
H  H86  1  0.98607086  0.10144389  0.43863013  1  0.095799  0  0.110669  0.114171  0  0.987638  0
H  H87  1  0.98581296  0.33709075  0.43856229  1  0.102961  0  0.110669  0.11436  0  0.986341  0
H  H88  1  0.14058642  0.20308148  0.96078006  1  0.053437  0  0.102535  0.101639  0  1.005767  0
H  H89  1  0.10960840  0.99219673  0.53934116  1  0.088758  0  0.10249  0.101512  0  1.006021  0
H  H90  1  0.10940934  0.54692273  0.53922000  1  0.051723  0  0.102538  0.101657  0  1.005623  0
H  H91  1  0.82023416  0.75772910  0.96073141  1  0.070264  0  0.102709  0.10104  0  1.006201  0
H  H92  1  0.42969067  0.54714528  0.53926377  1  0.035282  0  0.102555  0.101263  0  1.005363  0
H  H93  1  0.42976430  0.99226998  0.53926769  1  0.070216  0  0.102759  0.10111  0  1.006144  0
H  H94  1  0.14039624  0.75780259  0.96065902  1  0.088978  0  0.10248  0.10156  0  1.005885  0
H  H95  1  0.82031189  0.20285709  0.96074032  1  0.035188  0  0.102608  0.101379  0  1.005321  0
H  H96  1  0.45285390  0.57031021  0.46073792  1  0.035247  0  0.102572  0.101323  0  1.005336  0
H  H97  1  0.24227006  0.17976605  0.03926787  1  0.070232  0  0.102722  0.101041  0  1.006181  0
H  H98  1  0.79692085  0.85941266  0.03922051  1  0.052241  0  0.10254  0.101623  0  1.005761  0
H  H99  1  0.24219642  0.85960353  0.03933980  1  0.088947  0  0.102479  0.101547  0  1.005931  0
H  H100  1  0.79714674  0.17968694  0.03926255  1  0.035204  0  0.102579  0.101317  0  1.005335  0
H  H101  1  0.45307638  0.89058589  0.46077786  1  0.05239  0  0.102531  0.101606  0  1.005713  0
H  H102  1  0.00780492  0.89039221  0.46065980  1  0.088799  0  0.102497  0.101537  0  1.006013  0
H  H103  1  0.00773058  0.57023668  0.46073474  1  0.070147  0  0.102784  0.10119  0  1.00615  0
H  H104  1  0.09164119  0.08667725  0.88344670  1  0.103887  0  0.102369  0.104822  0  1.006922  0
H  H105  1  0.15839921  0.95308669  0.61667671  1  0.103799  0  0.102298  0.104684  0  1.008141  0
H  H106  1  0.15835683  0.66332509  0.61655394  1  0.103851  0  0.102368  0.104823  0  1.007041  0
H  H107  1  0.79174613  0.79693663  0.88343602  1  0.094223  0  0.10219  0.104147  0  1.008073  0
H  H108  1  0.45817955  0.66349407  0.61664717  1  0.069005  0  0.102024  0.103941  0  1.008139  0
H  H109  1  0.45825405  0.95306045  0.61656203  1  0.094012  0  0.102178  0.10414  0  1.008066  0
H  H110  1  0.09160476  0.79690926  0.88332226  1  0.103738  0  0.102282  0.104671  0  1.008041  0
H  H111  1  0.79182680  0.08650933  0.88335571  1  0.069013  0  0.102075  0.104049  0  1.008012  0
H  H112  1  0.33650589  0.54182255  0.38335429  1  0.068999  0  0.102075  0.104064  0  1.008043  0
H  H113  1  0.20306315  0.20825463  0.11656444  1  0.094245  0  0.1022  0.104162  0  1.008098  0
H  H114  1  0.91332434  0.90835777  0.11655306  1  0.103886  0  0.102417  0.104851  0  1.006993  0
H  H115  1  0.20308982  0.90839559  0.11667644  1  0.10371  0  0.102256  0.104661  0  1.008085  0
H  H116  1  0.91349473  0.20817331  0.11664450  1  0.069051  0  0.102099  0.104076  0  1.00798  0
H  H117  1  0.33667264  0.84163968  0.38344506  1  0.104013  0  0.102374  0.104788  0  1.007014  0
H  H118  1  0.04691425  0.84160153  0.38332366  1  0.103638  0  0.102313  0.104706  0  1.008131  0
H  H119  1  0.04693819  0.54174808  0.38343885  1  0.09391  0  0.102171  0.104063  0  1.008137  0
C  C120  1  0.30390255  0.84428994  0.68860598  1  0.197578  0  -0.066612  -0.087515  0  3.813678  0
C  C121  1  0.94609959  0.90570584  0.81139731  1  0.197196  0  -0.066671  -0.087628  0  3.813864  0
C  C122  1  0.38471427  0.84430903  0.68857225  1  0.206947  0  -0.067338  -0.089099  0  3.814237  0
C  C123  1  0.86528848  0.90568447  0.81143109  1  0.206769  0  -0.06744  -0.089167  0  3.813949  0
C  C124  1  0.09431685  0.13471168  0.18856923  1  0.206766  0  -0.067382  -0.089172  0  3.813899  0
C  C125  1  0.15569151  0.61528831  0.31142777  1  0.207029  0  -0.067419  -0.08922  0  3.814173  0
C  C126  1  0.15570952  0.69610112  0.31139416  1  0.197077  0  -0.066562  -0.087342  0  3.81351  0
C  C127  1  0.09429424  0.05389999  0.18860271  1  0.197212  0  -0.066675  -0.087633  0  3.813823  0
C  C128  1  0.34467726  0.94802770  0.76980175  1  0.215142  0  -0.06806  -0.091118  0  3.826864  0
C  C129  1  0.90532858  0.92834437  0.73022172  1  0.239775  0  -0.068294  -0.091353  0  3.826019  0
C  C130  1  0.90532420  0.80197282  0.73019867  1  0.215172  0  -0.068095  -0.091255  0  3.82697  0
C  C131  1  0.42512653  0.82169430  0.76976158  1  0.205424  0  -0.067782  -0.088662  0  3.823823  0
C  C132  1  0.82486220  0.80196095  0.73021855  1  0.215121  0  -0.068171  -0.090559  0  3.824421  0
C  C133  1  0.82487560  0.92830887  0.73024336  1  0.206207  0  -0.067789  -0.088733  0  3.823967  0
C  C134  1  0.34467366  0.82166003  0.76978441  1  0.239625  0  -0.068366  -0.091308  0  3.826121  0
C  C135  1  0.42513886  0.94803896  0.76978093  1  0.215179  0  -0.068202  -0.090717  0  3.824362  0
C  C136  1  0.19803991  0.17513905  0.26978177  1  0.215088  0  -0.068197  -0.0906  0  3.824306  0
C  C137  1  0.17830628  0.57487511  0.23023811  1  0.206434  0  -0.067793  -0.088743  0  3.824023  0
C  C138  1  0.05197198  0.65532438  0.23019768  1  0.2152  0  -0.06808  -0.09127  0  3.826865  0
C  C139  1  0.17834012  0.65532795  0.23021468  1  0.23967  0  -0.068392  -0.091394  0  3.826145  0
C  C140  1  0.05196238  0.57486210  0.23021861  1  0.215136  0  -0.068185  -0.090586  0  3.824317  0
C  C141  1  0.19802696  0.09467768  0.26980214  1  0.215168  0  -0.068054  -0.09113  0  3.826824  0
C  C142  1  0.07165654  0.09467438  0.26978014  1  0.239602  0  -0.068371  -0.091458  0  3.825983  0
C  C143  1  0.07169339  0.17512865  0.26975803  1  0.206053  0  -0.067818  -0.088655  0  3.823832  0
C  C144  1  0.16577075  0.00600706  0.82390448  1  1.579876  0  0.214867  0.588783  0  4.172627  0
C  C145  1  0.08416015  0.93199227  0.67613812  1  1.566342  0  0.215075  0.588105  0  4.173807  0
C  C146  1  0.08422853  0.74399471  0.67609741  1  1.579865  0  0.214752  0.588578  0  4.172739  0
C  C147  1  0.65815821  0.81802332  0.82392360  1  1.571721  0  0.215469  0.590003  0  4.173156  0
C  C148  1  0.59179765  0.74406567  0.67617200  1  1.579908  0  0.216123  0.590992  0  4.170126  0
C  C149  1  0.59184270  0.93197707  0.67607517  1  1.571692  0  0.215494  0.590034  0  4.173166  0
C  C150  1  0.16584231  0.81800278  0.82386101  1  1.566598  0  0.21514  0.588049  0  4.173902  0
C  C151  1  0.65820894  0.00593686  0.82382836  1  1.579763  0  0.216191  0.591049  0  4.169651  0
C  C152  1  0.25593525  0.40820476  0.32383024  1  1.580175  0  0.216085  0.590883  0  4.170174  0
C  C153  1  0.18198132  0.34184571  0.17607859  1  1.572419  0  0.215364  0.589853  0  4.173016  0
C  C154  1  0.99399435  0.83422705  0.17609452  1  1.579881  0  0.214855  0.588765  0  4.172656  0
C  C155  1  0.18199518  0.83415616  0.17613688  1  1.566597  0  0.215136  0.588067  0  4.173716  0
C  C156  1  0.99406867  0.34179425  0.17617071  1  1.580318  0  0.216175  0.591051  0  4.169909  0
C  C157  1  0.25600411  0.91577197  0.32390451  1  1.580155  0  0.21474  0.58855  0  4.172715  0
C  C158  1  0.06800441  0.91584299  0.32386155  1  1.566653  0  0.215151  0.58811  0  4.173716  0
C  C159  1  0.06802462  0.40816327  0.32392649  1  1.571502  0  0.215585  0.589946  0  4.173431  0
C  C160  1  0.19459728  0.07766444  0.86891128  1  0.03942  0  -0.012433  -0.021662  0  3.954664  0
C  C161  1  0.05539398  0.95863492  0.63113111  1  -0.019928  0  -0.012948  -0.021722  0  3.953429  0
C  C162  1  0.05540151  0.67233782  0.63108957  1  0.039402  0  -0.012459  -0.021627  0  3.95466  0
C  C163  1  0.67429262  0.79130724  0.86892074  1  -0.017187  0  -0.012457  -0.021692  0  3.954291  0
C  C164  1  0.57562352  0.67249114  0.63110674  1  -0.077364  0  -0.012702  -0.021995  0  3.954028  0
C  C165  1  0.57570785  0.95869193  0.63107650  1  -0.016674  0  -0.012476  -0.021866  0  3.954326  0
C  C166  1  0.19460985  0.79135882  0.86886771  1  -0.019606  0  -0.012914  -0.021678  0  3.953103  0
C  C167  1  0.67438147  0.07751160  0.86889368  1  -0.077257  0  -0.012693  -0.022113  0  3.95422  0
C  C168  1  0.32750824  0.42437814  0.36889490  1  -0.077308  0  -0.012745  -0.022121  0  3.954267  0
C  C169  1  0.20869536  0.32571054  0.13107871  1  -0.01721  0  -0.012485  -0.021685  0  3.954217  0
C  C170  1  0.92233668  0.80540175  0.13108717  1  0.039427  0  -0.012395  -0.021548  0  3.954539  0
C  C171  1  0.20863895  0.80539023  0.13112975  1  -0.019725  0  -0.01292  -0.021624  0  3.953221  0
C  C172  1  0.92249174  0.32561798  0.13110547  1  -0.077135  0  -0.012658  -0.021929  0  3.954111  0
C  C173  1  0.32766133  0.94459604  0.36891032  1  0.038897  0  -0.01238  -0.021538  0  3.954608  0
C  C174  1  0.04136246  0.94460815  0.36886882  1  -0.019756  0  -0.012986  -0.021703  0  3.953283  0
C  C175  1  0.04130841  0.42429687  0.36892478  1  -0.016739  0  -0.012545  -0.021906  0  3.954475  0
C  C176  1  0.26794228  0.11027829  0.88439850  1  -0.117233  0  -0.08252  -0.091233  0  3.97769  0
C  C177  1  0.98207342  0.97578977  0.61561412  1  -0.03626  0  -0.082296  -0.091332  0  3.977041  0
C  C178  1  0.98205745  0.63972418  0.61560335  1  -0.117448  0  -0.082477  -0.091132  0  3.977598  0
C  C179  1  0.61645099  0.77404097  0.88437942  1  -0.029789  0  -0.082401  -0.090922  0  3.974703  0
C  C180  1  0.63344509  0.63993819  0.61556929  1  -0.015669  0  -0.082608  -0.091933  0  3.977966  0
C  C181  1  0.63354859  0.97595538  0.61561638  1  -0.030276  0  -0.082438  -0.09097  0  3.974875  0
C  C182  1  0.26793060  0.77420357  0.88438441  1  -0.035913  0  -0.082308  -0.091325  0  3.976748  0
C  C183  1  0.61655753  0.11006016  0.88442881  1  -0.016069  0  -0.082515  -0.091699  0  3.977838  0
C  C184  1  0.36006026  0.36655818  0.38443083  1  -0.015819  0  -0.082534  -0.091816  0  3.977992  0
C  C185  1  0.22596115  0.38354992  0.11562014  1  -0.030239  0  -0.082429  -0.090889  0  3.974901  0
C  C186  1  0.88972206  0.73205750  0.11560041  1  -0.117268  0  -0.082463  -0.091168  0  3.977543  0
C  C187  1  0.22579453  0.73206907  0.11561383  1  -0.035828  0  -0.082372  -0.091451  0  3.976515  0
C  C188  1  0.88994023  0.38343910  0.11557060  1  -0.016133  0  -0.082578  -0.091918  0  3.978073  0
C  C189  1  0.36027481  0.01794100  0.38439799  1  -0.117396  0  -0.082481  -0.091139  0  3.977634  0
C  C190  1  0.02420697  0.01792816  0.38438521  1  -0.035767  0  -0.082324  -0.091354  0  3.976937  0
C  C191  1  0.02404257  0.36645220  0.38438054  1  -0.030313  0  -0.08243  -0.090954  0  3.974749  0
C  C192  1  0.29509307  0.17595730  0.92662032  1  -0.034382  0  -0.078  -0.096874  0  3.964443  0
C  C193  1  0.95500484  0.99928038  0.57339646  1  -0.011473  0  -0.077778  -0.096474  0  3.967638  0
C  C194  1  0.95490498  0.57404580  0.57338042  1  -0.034128  0  -0.077991  -0.096828  0  3.964265  0
C  C195  1  0.63155486  0.75048808  0.92657216  1  -0.046329  0  -0.077971  -0.096838  0  3.964085  0
C  C196  1  0.61834348  0.57426718  0.57334012  1  -0.061569  0  -0.077659  -0.096234  0  3.962751  0
C  C197  1  0.61844384  0.99951014  0.57342443  1  -0.04654  0  -0.077878  -0.096663  0  3.96385  0
C  C198  1  0.29499963  0.75071653  0.92660472  1  -0.011611  0  -0.077715  -0.096356  0  3.967496  0
C  C199  1  0.63165530  0.17573222  0.92665803  1  -0.061541  0  -0.077779  -0.096446  0  3.96271  0
C  C200  1  0.42572940  0.38165448  0.42665806  1  -0.061256  0  -0.077737  -0.096331  0  3.962656  0
C  C201  1  0.24951287  0.36844641  0.07342753  1  -0.046505  0  -0.077933  -0.09679  0  3.964064  0
C  C202  1  0.82404302  0.70490643  0.07337862  1  -0.034513  0  -0.077971  -0.096877  0  3.964367  0
C  C203  1  0.24928131  0.70499954  0.07339213  1  -0.011253  0  -0.077734  -0.096441  0  3.967356  0
C  C204  1  0.82427240  0.36834322  0.07334356  1  -0.061486  0  -0.077735  -0.09632  0  3.96257  0
C  C205  1  0.42595159  0.04509359  0.42662085  1  -0.033937  0  -0.07798  -0.0968  0  3.964158  0
C  C206  1  0.00072059  0.04499595  0.42660675  1  -0.011993  0  -0.077765  -0.097256  0  3.966893  0
C  C207  1  0.00048930  0.38155653  0.42657382  1  -0.046483  0  -0.077885  -0.096656  0  3.963672  0
C  C208  1  0.24988337  0.20912084  0.95506928  1  -0.039623  0  -0.01323  0.000247  0  3.976037  0
C  C209  1  0.00026167  0.00397686  0.54496826  1  -0.087454  0  -0.012895  0.001065  0  3.977754  0
C  C210  1  0.00011364  0.54088316  0.54493036  1  -0.039638  0  -0.013153  0.001174  0  3.976548  0
C  C211  1  0.70523423  0.74582466  0.95502568  1  -0.037686  0  -0.013197  -0.000156  0  3.975705  0
C  C212  1  0.54466656  0.54106130  0.54492890  1  -0.029229  0  -0.013393  0.001547  0  3.972158  0
C  C213  1  0.54476480  0.00417349  0.54497161  1  -0.038015  0  -0.01319  0.000723  0  3.976099  0
C  C214  1  0.24974271  0.74602130  0.95503205  1  -0.087286  0  -0.012968  0.001011  0  3.977711  0
C  C215  1  0.70533277  0.20893821  0.95507090  1  -0.029241  0  -0.013393  0.001577  0  3.972078  0
C  C216  1  0.45893656  0.45533210  0.45507006  1  -0.029554  0  -0.0134  0.001538  0  3.972142  0
C  C217  1  0.25417522  0.29476605  0.04497345  1  -0.037571  0  -0.013183  -8.8e-05  0  3.975499  0
C  C218  1  0.79088033  0.75011588  0.04492914  1  -0.039508  0  -0.013224  0.000272  0  3.976011  0
C  C219  1  0.25397930  0.75025708  0.04496676  1  -0.087739  0  -0.012886  0.001197  0  3.977655  0
C  C220  1  0.79106334  0.29466445  0.04492913  1  -0.029456  0  -0.013389  0.001575  0  3.972071  0
C  C221  1  0.45911508  0.99988343  0.45506908  1  -0.039086  0  -0.013214  0.001  0  3.976669  0
C  C222  1  0.99602359  0.99973929  0.45503335  1  -0.087251  0  -0.012898  0.003782  0  3.973882  0
C  C223  1  0.99582564  0.45523560  0.45502779  1  -0.037739  0  -0.013189  0.000852  0  3.975995  0
C  C224  1  0.17638475  0.17668673  0.93944629  1  -0.058719  0  -0.08553  -0.116074  0  3.998213  0
C  C225  1  0.07374968  0.98711407  0.56062656  1  -0.097358  0  -0.085636  -0.116376  0  3.999137  0
C  C226  1  0.07361012  0.57331700  0.56055344  1  -0.055996  0  -0.085633  -0.11617  0  3.997845  0
C  C227  1  0.76308834  0.76275052  0.93941244  1  -0.031523  0  -0.085545  -0.114687  0  3.997425  0
C  C228  1  0.48682931  0.57351461  0.56057815  1  0.013796  0  -0.085391  -0.115816  0  3.99664  0
C  C229  1  0.48690945  0.98724789  0.56058490  1  -0.031377  0  -0.085527  -0.114612  0  3.997069  0
C  C230  1  0.17625501  0.76288588  0.93937421  1  -0.097426  0  -0.085673  -0.116538  0  3.999026  0
C  C231  1  0.76317303  0.17648831  0.93942572  1  0.013888  0  -0.085487  -0.115958  0  3.996769  0
C  C232  1  0.42648474  0.51317136  0.43942316  1  0.013628  0  -0.085479  -0.115977  0  3.99659  0
C  C233  1  0.23724803  0.23691157  0.06058623  1  -0.031481  0  -0.085492  -0.1146  0  3.997252  0
C  C234  1  0.82331438  0.82361406  0.06055380  1  -0.057536  0  -0.085604  -0.116089  0  3.998086  0
C  C235  1  0.23711333  0.82374436  0.06062375  1  -0.097682  0  -0.08566  -0.116449  0  3.999052  0
C  C236  1  0.82351553  0.23682684  0.06057639  1  0.013454  0  -0.085406  -0.11581  0  3.996647  0
C  C237  1  0.42668197  0.92638635  0.43944534  1  -0.057586  0  -0.08568  -0.116096  0  3.998081  0
C  C238  1  0.01288845  0.92625064  0.43937464  1  -0.097364  0  -0.085621  -0.117224  0  3.998173  0
C  C239  1  0.01274927  0.51309207  0.43941582  1  -0.031451  0  -0.085589  -0.114893  0  3.99706  0
C  C240  1  0.14876052  0.11196058  0.89632207  1  -0.036802  0  -0.085503  -0.093164  0  3.986449  0
C  C241  1  0.10129239  0.96548996  0.60374134  1  0.000371  0  -0.084798  -0.092426  0  3.986715  0
C  C242  1  0.10123911  0.63804155  0.60367850  1  -0.037581  0  -0.085457  -0.093107  0  3.986504  0
C  C243  1  0.74754090  0.78446553  0.89633570  1  -0.075072  0  -0.085182  -0.092797  0  3.987135  0
C  C244  1  0.50236132  0.63821082  0.60370248  1  -0.024179  0  -0.08515  -0.09261  0  3.987522  0
C  C245  1  0.50245706  0.96553171  0.60366126  1  -0.07482  0  -0.08521  -0.092788  0  3.987079  0
C  C246  1  0.14871278  0.78450751  0.89625772  1  4.4e-05  0  -0.084765  -0.092291  0  3.986348  0
C  C247  1  0.74764279  0.11179108  0.89629928  1  -0.024569  0  -0.08523  -0.092762  0  3.987697  0
C  C248  1  0.36178639  0.49764159  0.39630022  1  -0.024053  0  -0.085178  -0.092665  0  3.9874  0
C  C249  1  0.21553332  0.25245962  0.10366345  1  -0.075014  0  -0.08529  -0.092975  0  3.987072  0
C  C250  1  0.88804060  0.85124027  0.10367802  1  -0.036802  0  -0.085489  -0.093181  0  3.986421  0
C  C251  1  0.21549077  0.85128834  0.10374096  1  0.000343  0  -0.084731  -0.092382  0  3.986535  0
C  C252  1  0.88821314  0.25235564  0.10369971  1  -0.024299  0  -0.085296  -0.092906  0  3.98755  0
C  C253  1  0.36195612  0.89875909  0.39632205  1  -0.036864  0  -0.08538  -0.093013  0  3.98644  0
C  C254  1  0.03451109  0.89870894  0.39625805  1  0.000271  0  -0.084766  -0.09248  0  3.986758  0
C  C255  1  0.03446637  0.49754540  0.39633875  1  -0.074729  0  -0.08515  -0.092549  0  3.986966  0
C  C256  1  0.28028712  0.28018670  0.00001005  1  0.953202  0  0.160292  0.347045  0  3.989321  0
C  C257  1  0.96990967  0.03008861  0.50000079  1  0.961162  0  0.160531  0.344613  0  3.992539  0
C  C258  1  0.96971347  0.46981488  0.49999038  1  0.953009  0  0.160352  0.344183  0  3.99384  0
C  C259  1  0.71981435  0.71971334  0.99998966  1  0.953197  0  0.16027  0.346988  0  3.98926  0
C  C260  1  0.53004713  0.46995191  0.49999950  1  0.947062  0  0.161235  0.346365  0  3.989942  0
C  C261  1  0.53018402  0.03028612  0.50000864  1  0.952968  0  0.160339  0.344238  0  3.993822  0
C  C262  1  0.28009239  0.71990723  0.99999896  1  0.960665  0  0.160675  0.345539  0  3.992811  0
C  C263  1  0.71995384  0.28004863  0.00000184  1  0.947043  0  0.161254  0.346407  0  3.989857  0
N  N264  1  0.30443749  0.87136476  0.74282895  1  -0.972757  0  -0.339214  -0.103007  0  3.449283  0
N  N265  1  0.94556341  0.87863559  0.75717422  1  -0.972688  0  -0.339192  -0.102761  0  3.449204  0
N  N266  1  0.43840084  0.87139958  0.74279807  1  -0.980717  0  -0.339119  -0.104138  0  3.450006  0
N  N267  1  0.81160336  0.87859924  0.75720505  1  -0.980525  0  -0.33915  -0.104411  0  3.450282  0
N  N268  1  0.12140208  0.18839857  0.24279514  1  -0.980575  0  -0.339151  -0.104363  0  3.45015  0
N  N269  1  0.12860195  0.56160260  0.25720255  1  -0.981613  0  -0.339058  -0.104148  0  3.450117  0
N  N270  1  0.12863501  0.69556383  0.25717058  1  -0.972794  0  -0.339186  -0.102888  0  3.449173  0
N  N271  1  0.12136373  0.05443847  0.24282629  1  -0.972863  0  -0.339213  -0.102793  0  3.449169  0
O  O272  1  0.21157687  0.97558396  0.80255698  1  -1.17391  0  -0.313351  -0.553702  0  2.357415  0
O  O273  1  0.03831388  0.92293675  0.69746535  1  -1.169998  0  -0.313574  -0.55284  0  2.359967  0
O  O274  1  0.03842311  0.77441550  0.69744411  1  -1.17395  0  -0.313317  -0.553604  0  2.357546  0
O  O275  1  0.59100566  0.82711934  0.80261186  1  -1.175319  0  -0.313596  -0.554039  0  2.35931  0
O  O276  1  0.65895651  0.77448583  0.69751813  1  -1.177341  0  -0.314231  -0.554657  0  2.358747  0
O  O277  1  0.65899434  0.92288162  0.69738601  1  -1.175316  0  -0.313661  -0.554096  0  2.359409  0
O  O278  1  0.21169073  0.82706092  0.80253480  1  -1.170146  0  -0.313556  -0.552831  0  2.359945  0
O  O279  1  0.59104743  0.97552036  0.80248143  1  -1.177512  0  -0.314346  -0.554772  0  2.358661  0
O  O280  1  0.22551536  0.34104410  0.30248146  1  -1.177574  0  -0.314245  -0.554619  0  2.358784  0
O  O281  1  0.17288544  0.40899911  0.19738857  1  -1.175328  0  -0.313475  -0.553936  0  2.35923  0
O  O282  1  0.02441623  0.78842229  0.19744132  1  -1.173958  0  -0.313374  -0.55372  0  2.357589  0
O  O283  1  0.17293723  0.78830633  0.19746172  1  -1.170138  0  -0.313567  -0.552841  0  2.359892  0
O  O284  1  0.02448459  0.40895395  0.19751826  1  -1.177623  0  -0.3142  -0.554644  0  2.358762  0
O  O285  1  0.22558186  0.96157830  0.30255838  1  -1.173937  0  -0.313312  -0.55362  0  2.357389  0
O  O286  1  0.07706312  0.96169275  0.30253691  1  -1.170166  0  -0.313565  -0.552871  0  2.359846  0
O  O287  1  0.07711933  0.34100969  0.30261371  1  -1.175077  0  -0.313693  -0.55404  0  2.359421  0
O  O288  1  0.09799961  0.98046275  0.81077095  1  -1.175826  0  -0.317264  -0.549187  0  2.327291  0
O  O289  1  0.15191873  0.91958009  0.68927947  1  -1.169891  0  -0.316571  -0.548349  0  2.329176  0
O  O290  1  0.15200180  0.76953768  0.68923044  1  -1.175815  0  -0.317201  -0.549118  0  2.327231  0
O  O291  1  0.71276879  0.83040382  0.81076068  1  -1.1693  0  -0.31718  -0.549773  0  2.329008  0
O  O292  1  0.53717374  0.76956025  0.68932594  1  -1.16903  0  -0.317183  -0.549671  0  2.327754  0
O  O293  1  0.53723205  0.91959665  0.68923857  1  -1.169151  0  -0.317141  -0.549684  0  2.32899  0
O  O294  1  0.09808438  0.83041434  0.81071975  1  -1.169916  0  -0.316603  -0.548259  0  2.3293  0
O  O295  1  0.71283152  0.98044095  0.81067491  1  -1.168741  0  -0.317161  -0.549611  0  2.327506  0
O  O296  1  0.23044113  0.46282774  0.31067549  1  -1.169084  0  -0.317136  -0.549576  0  2.327687  0
O  O297  1  0.16960022  0.28723318  0.18924005  1  -1.169496  0  -0.317123  -0.54964  0  2.328895  0
O  O298  1  0.01953772  0.90200032  0.18922964  1  -1.175782  0  -0.317283  -0.549252  0  2.32721  0
O  O299  1  0.16958338  0.90191553  0.18928026  1  -1.169861  0  -0.316617  -0.548311  0  2.329147  0
O  O300  1  0.01956293  0.28716969  0.18932333  1  -1.169189  0  -0.317268  -0.549739  0  2.327685  0
O  O301  1  0.23045894  0.84799931  0.31076976  1  -1.175815  0  -0.317215  -0.549127  0  2.327316  0
O  O302  1  0.08041522  0.84808425  0.31071774  1  -1.170089  0  -0.316629  -0.548319  0  2.329215  0
O  O303  1  0.08040498  0.46277285  0.31076264  1  -1.169181  0  -0.317166  -0.549625  0  2.329018  0
O  O304  1  0.32575764  0.32562506  0.00000257  1  -1.060197  0  -0.264908  -0.393851  0  2.035665  0
O  O305  1  0.92446498  0.07553173  0.50000053  1  -1.040172  0  -0.265623  -0.393649  0  2.037717  0
O  O306  1  0.92423869  0.42437529  0.49999695  1  -1.060013  0  -0.264973  -0.392947  0  2.037137  0
O  O307  1  0.67437635  0.67423859  0.99999565  1  -1.060177  0  -0.264896  -0.393802  0  2.035573  0
O  O308  1  0.57548889  0.42450728  0.49999796  1  -1.051032  0  -0.265519  -0.394179  0  2.037198  0
O  O309  1  0.57562056  0.07576095  0.50000176  1  -1.059968  0  -0.264963  -0.392941  0  2.037197  0
O  O310  1  0.32553620  0.67446363  0.99999889  1  -1.040072  0  -0.265752  -0.393755  0  2.037516  0
O  O311  1  0.67451208  0.32549559  0.00000448  1  -1.051049  0  -0.265532  -0.39423  0  2.03714  0
