# generated using pymatgen
data_Er2CuH16C24(N2O5)4
_symmetry_space_group_name_H-M   'P 1'
_cell_length_a   6.06454693
_cell_length_b   12.19591374
_cell_length_c   21.55753590
_cell_angle_alpha   89.99936436
_cell_angle_beta   90.00313870
_cell_angle_gamma   92.71032434
_symmetry_Int_Tables_number   1
_chemical_formula_structural   Er2CuH16C24(N2O5)4
_chemical_formula_sum   'Er4 Cu2 H32 C48 N16 O40'
_cell_volume   1592.66976768
_cell_formula_units_Z   2
loop_
 _symmetry_equiv_pos_site_id
 _symmetry_equiv_pos_as_xyz
  1  'x, y, z'
loop_
 _atom_site_type_symbol
 _atom_site_label
 _atom_site_symmetry_multiplicity
 _atom_site_fract_x
 _atom_site_fract_y
 _atom_site_fract_z
 _atom_site_occupancy
 _atom_site_pbe_bader_charge
 _atom_site_pbe_bader_spin_density
 _atom_site_pbe_cm5_charge
 _atom_site_pbe_ddec_charge
 _atom_site_pbe_ddec_spin_density
 _atom_site_pbe_ddec_sum_bond_order
 _atom_site_pbe_magmom
Er  Er0  1  0.48271819  0.42621890  0.66103511  1  2.179446  -7.9e-05  1.528238  2.044297  -9.9e-05  2.189016  0.0
Er  Er1  1  0.01719155  0.07378166  0.16103402  1  2.179383  7.8e-05  1.528304  2.044749  9.7e-05  2.188244  0.0
Er  Er2  1  0.51728121  0.57377833  0.33896499  1  2.179452  -7.9e-05  1.528222  2.044334  -9.9e-05  2.188984  0.0
Er  Er3  1  0.98280839  0.92622049  0.83896608  1  2.179372  7.8e-05  1.528346  2.044795  9.6e-05  2.188209  0.0
Cu  Cu4  1  0.00000319  0.99999774  0.50000008  1  1.088379  -0.57257  0.770592  0.775816  -0.75596  2.301841  -0.57
Cu  Cu5  1  0.49999698  0.50000149  0.99999948  1  1.088466  0.572561  0.770603  0.775988  0.755961  2.301418  0.57
H  H6  1  0.70921904  0.34258762  0.54743155  1  0.664951  -0.000296  0.305225  0.416873  -0.00033  0.905868  0.0
H  H7  1  0.79066291  0.15742581  0.04743384  1  0.665057  0.000295  0.305194  0.416712  0.000329  0.906079  0.0
H  H8  1  0.29078348  0.65740795  0.45256808  1  0.664999  -0.000296  0.305206  0.416839  -0.00033  0.90594  0.0
H  H9  1  0.20933703  0.84257634  0.95256579  1  0.665083  0.000295  0.305235  0.416767  0.000329  0.906004  0.0
H  H10  1  0.89383562  0.40994307  0.59048763  1  0.634893  -1.2e-05  0.317324  0.427336  -9e-06  0.878673  0.0
H  H11  1  0.60602776  0.09007851  0.09048362  1  0.634283  1.2e-05  0.317291  0.427039  1e-05  0.879016  0.0
H  H12  1  0.10616708  0.59005414  0.40951154  1  0.63492  -1.2e-05  0.317316  0.427342  -9e-06  0.878665  0.0
H  H13  1  0.39397227  0.90992446  0.90951647  1  0.634256  1.2e-05  0.317292  0.427066  1e-05  0.878995  0.0
H  H14  1  0.43194904  0.63988612  0.57935312  1  0.663345  4.1e-05  0.312404  0.431424  5e-05  0.86923  0.0
H  H15  1  0.06792600  0.86012184  0.07935915  1  0.663573  -4.1e-05  0.312434  0.431471  -5e-05  0.869129  0.0
H  H16  1  0.56805833  0.36010861  0.42064512  1  0.663384  4.1e-05  0.312411  0.431415  5e-05  0.869249  0.0
H  H17  1  0.93206909  0.13988115  0.92064048  1  0.663515  -4.1e-05  0.31244  0.431436  -5e-05  0.869157  0.0
H  H18  1  0.62059113  0.65017689  0.63030659  1  0.664327  1e-06  0.304458  0.418071  4e-06  0.909163  0.0
H  H19  1  0.87925120  0.84983227  0.13029895  1  0.664992  -1e-06  0.304421  0.417975  -4e-06  0.909338  0.0
H  H20  1  0.37941294  0.34981785  0.36969211  1  0.664266  1e-06  0.304458  0.418028  4e-06  0.909202  0.0
H  H21  1  0.12074719  0.15017070  0.86970208  1  0.664922  -1e-06  0.304435  0.418043  -4e-06  0.909253  0.0
H  H22  1  0.62364646  0.59614784  0.79572119  1  0.16569  1e-06  0.121437  0.089146  -3e-06  1.050841  0.0
H  H23  1  0.87630940  0.90384177  0.29572830  1  0.165446  -1e-06  0.121517  0.089229  3e-06  1.050885  0.0
H  H24  1  0.37635174  0.40385349  0.20427798  1  0.165661  1e-06  0.121445  0.089132  -3e-06  1.050896  0.0
H  H25  1  0.12369201  0.09615873  0.70427273  1  0.165456  -1e-06  0.121534  0.089254  3e-06  1.050886  0.0
H  H26  1  0.46658423  0.76047423  0.84931885  1  0.181985  -3e-06  0.129783  0.105639  -3e-06  1.033877  0.0
H  H27  1  0.03341868  0.73952215  0.34932807  1  0.181781  4e-06  0.129702  0.10547  4e-06  1.033958  0.0
H  H28  1  0.53341214  0.23952547  0.15068078  1  0.181963  -4e-06  0.129785  0.105612  -3e-06  1.03386  0.0
H  H29  1  0.96658282  0.26047917  0.65067296  1  0.181788  4e-06  0.129678  0.105417  3e-06  1.033949  0.0
H  H30  1  0.50202725  0.90275665  0.68338704  1  0.132787  -0.001185  0.125209  0.108116  -0.000654  0.978288  -0.001
H  H31  1  0.99805121  0.59724285  0.18339110  1  0.132887  0.001186  0.125218  0.108202  0.000654  0.978466  0.001
H  H32  1  0.49799028  0.09724050  0.31661444  1  0.132594  -0.001186  0.12523  0.108154  -0.000654  0.978302  -0.001
H  H33  1  0.00194040  0.40275851  0.81660807  1  0.132722  0.001186  0.12522  0.108171  0.000654  0.97849  0.001
H  H34  1  0.18524715  0.13275540  0.39037572  1  0.216583  -0.002328  0.131164  0.128334  -0.001163  1.010574  -0.002
H  H35  1  0.31470619  0.36723803  0.89037015  1  0.21679  0.002327  0.131142  0.128343  0.001163  1.010593  0.002
H  H36  1  0.81476388  0.86724260  0.60962437  1  0.216528  -0.002328  0.131208  0.128387  -0.001163  1.010587  -0.002
H  H37  1  0.68528725  0.63276497  0.10962855  1  0.216705  0.002327  0.131174  0.128361  0.001163  1.010575  0.002
C  C38  1  0.29449129  0.20001629  0.57920498  1  1.687432  -0.001368  0.229881  0.623179  -0.001068  4.216101  -0.001
C  C39  1  0.20552555  0.29997901  0.07921508  1  1.68725  0.001369  0.229805  0.622947  0.001068  4.216281  0.001
C  C40  1  0.70551452  0.79997927  0.42079558  1  1.687416  -0.001368  0.229827  0.623321  -0.001068  4.216211  -0.001
C  C41  1  0.79446789  0.70002399  0.92078408  1  1.687256  0.001369  0.229796  0.622929  0.001068  4.216326  0.001
C  C42  1  0.00489037  0.52187916  0.68727112  1  1.659719  -1e-06  0.24744  0.630653  5e-06  4.144051  0.0
C  C43  1  0.49501894  0.97811931  0.18727242  1  1.65959  1e-06  0.24788  0.631262  -5e-06  4.14373  0.0
C  C44  1  0.99511095  0.47812052  0.31272805  1  1.659581  -1e-06  0.247426  0.63066  5e-06  4.144056  0.0
C  C45  1  0.50498110  0.02188366  0.81272907  1  1.659692  1e-06  0.247943  0.631421  -5e-06  4.143611  0.0
C  C46  1  0.46187305  0.62557946  0.78339133  1  0.524726  -5e-05  0.068327  0.088511  -4.5e-05  3.865086  0.0
C  C47  1  0.03808373  0.87441570  0.28339775  1  0.525157  4.9e-05  0.06815  0.088352  4.4e-05  3.865067  0.0
C  C48  1  0.53812506  0.37442105  0.21660738  1  0.524725  -4.9e-05  0.068298  0.0885  -4.4e-05  3.8651  0.0
C  C49  1  0.96191768  0.12558480  0.71660328  1  0.525128  4.9e-05  0.068099  0.088215  4.4e-05  3.86514  0.0
C  C50  1  0.14256361  0.60269220  0.72601041  1  0.566416  -2.8e-05  0.138489  0.070797  -2e-05  3.904254  0.0
C  C51  1  0.35736175  0.89731037  0.22601508  1  0.565422  2.8e-05  0.138397  0.070646  2e-05  3.904898  0.0
C  C52  1  0.85743459  0.39730914  0.27398829  1  0.566551  -2.8e-05  0.138462  0.070795  -2e-05  3.904342  0.0
C  C53  1  0.64263985  0.10269178  0.77398641  1  0.565439  2.8e-05  0.138383  0.070561  2e-05  3.904983  0.0
C  C54  1  0.45818512  0.11189006  0.58891032  1  0.507831  -0.002972  0.132288  0.059085  -0.002102  3.940823  -0.002
C  C55  1  0.04185635  0.38811706  0.08891224  1  0.508404  0.002971  0.132333  0.059656  0.002101  3.940174  0.002
C  C56  1  0.54182243  0.88810631  0.41109024  1  0.508238  -0.002972  0.13223  0.059125  -0.002102  3.940768  -0.002
C  C57  1  0.95813700  0.61188512  0.91108693  1  0.508361  0.002971  0.132393  0.059733  0.002101  3.940273  0.002
C  C58  1  0.37751114  0.71765146  0.81205370  1  0.453123  -9e-06  0.069397  0.090194  -1e-05  3.86592  0.0
C  C59  1  0.12247199  0.78234735  0.31206150  1  0.452856  8e-06  0.069526  0.090517  9e-06  3.865491  0.0
C  C60  1  0.62248697  0.28234906  0.18794547  1  0.453098  -9e-06  0.069418  0.090285  -1e-05  3.865759  0.0
C  C61  1  0.87752951  0.21765397  0.68793952  1  0.452892  8e-06  0.069578  0.090594  9e-06  3.86542  0.0
C  C62  1  0.07166190  0.70284541  0.74875035  1  0.477566  -8.1e-05  0.131311  0.065404  -6.4e-05  3.922158  0.0
C  C63  1  0.42827908  0.79715698  0.24875344  1  0.477308  8.1e-05  0.131145  0.065177  6.4e-05  3.922643  0.0
C  C64  1  0.92833456  0.29715511  0.25124928  1  0.47758  -8.1e-05  0.131317  0.065383  -6.4e-05  3.922257  0.0
C  C65  1  0.57172416  0.20284515  0.75124851  1  0.477487  8.1e-05  0.131122  0.065124  6.4e-05  3.922723  0.0
C  C66  1  0.63535190  0.09530016  0.54897885  1  0.495741  0.000161  0.112627  0.025368  -0.000266  3.92139  0.0
C  C67  1  0.86468401  0.40471261  0.04897825  1  0.495929  -0.000161  0.112663  0.025348  0.000265  3.921036  0.0
C  C68  1  0.36465391  0.90469540  0.45102125  1  0.495719  0.000161  0.11263  0.025341  -0.000266  3.92146  0.0
C  C69  1  0.13530769  0.59528957  0.95102092  1  0.495919  -0.00016  0.112571  0.025203  0.000266  3.921243  0.0
C  C70  1  0.87663595  0.76068087  0.72299626  1  1.640413  -1.6e-05  0.221833  0.584001  -1.4e-05  4.233126  0.0
C  C71  1  0.62328304  0.73932584  0.22298854  1  1.639783  1.6e-05  0.222041  0.584307  1.4e-05  4.232836  0.0
C  C72  1  0.12335713  0.23931885  0.27700523  1  1.640118  -1.6e-05  0.221862  0.584049  -1.4e-05  4.233089  0.0
C  C73  1  0.37672029  0.26067712  0.77701341  1  1.639208  1.6e-05  0.221979  0.584238  1.4e-05  4.23299  0.0
C  C74  1  0.53754838  0.95792503  0.64447107  1  0.577541  -0.005866  0.068706  0.08934  -0.004198  3.894878  -0.005
C  C75  1  0.96251466  0.54208024  0.14447303  1  0.576908  0.005868  0.068764  0.089266  0.004197  3.894999  0.005
C  C76  1  0.46246265  0.04207297  0.35553042  1  0.577802  -0.005866  0.068762  0.08943  -0.004197  3.894854  -0.005
C  C77  1  0.03747704  0.45792194  0.85552614  1  0.577108  0.005868  0.068778  0.089391  0.004197  3.894745  0.005
C  C78  1  0.70187611  0.16386185  0.49274344  1  1.635283  -0.001114  0.211011  0.55637  -0.002524  4.221399  -0.001
C  C79  1  0.79813406  0.33614840  0.99274373  1  1.635128  0.001112  0.210856  0.556086  0.002522  4.221398  0.001
C  C80  1  0.29812806  0.83613372  0.50725666  1  1.635822  -0.001115  0.210887  0.556241  -0.002525  4.221487  -0.001
C  C81  1  0.20185929  0.66385378  0.00725544  1  1.635849  0.001113  0.210856  0.556165  0.002522  4.221528  0.001
C  C82  1  0.28708088  0.06218628  0.39549285  1  0.430764  0.001109  0.06329  0.061928  -1.8e-05  3.845917  0.001
C  C83  1  0.21286885  0.43780449  0.89549028  1  0.43128  -0.001112  0.063295  0.061851  1.8e-05  3.845351  -0.001
C  C84  1  0.71293015  0.93781172  0.60450771  1  0.430739  0.001109  0.063293  0.061919  -1.8e-05  3.845928  0.001
C  C85  1  0.78712459  0.56219851  0.10450843  1  0.431364  -0.001111  0.063158  0.061744  1.9e-05  3.845456  -0.001
N  N86  1  0.34551351  0.56987342  0.73994400  1  -1.208972  -8e-06  -0.334023  -0.29675  -6e-06  3.47619  0.0
N  N87  1  0.15441430  0.93012528  0.23994877  1  -1.207713  8e-06  -0.334091  -0.29701  6e-06  3.476411  0.0
N  N88  1  0.65448634  0.43012791  0.26005470  1  -1.209041  -8e-06  -0.33405  -0.296815  -6e-06  3.476278  0.0
N  N89  1  0.84558555  0.06987605  0.76005225  1  -1.20775  8e-06  -0.334063  -0.29686  6e-06  3.476417  0.0
N  N90  1  0.68846270  0.25850636  0.70736021  1  -1.21092  2.5e-05  -0.329726  -0.312272  2.1e-05  3.476957  0.0
N  N91  1  0.81156235  0.24149502  0.20736363  1  -1.2106  -2.4e-05  -0.329828  -0.312391  -2e-05  3.477043  0.0
N  N92  1  0.31154045  0.74149496  0.29264127  1  -1.210747  2.5e-05  -0.32975  -0.312333  2.1e-05  3.477007  0.0
N  N93  1  0.18843567  0.75850468  0.79263600  1  -1.21061  -2.4e-05  -0.329865  -0.312427  -2e-05  3.477129  0.0
N  N94  1  0.41258532  0.04418552  0.63719080  1  -1.156157  0.002575  -0.28445  -0.228756  0.00179  3.298188  0.002
N  N95  1  0.08747473  0.45582036  0.13719243  1  -1.157324  -0.002575  -0.284563  -0.229086  -0.00179  3.298418  -0.002
N  N96  1  0.58742562  0.95581166  0.36281069  1  -1.156664  0.002575  -0.284441  -0.228856  0.00179  3.298197  0.002
N  N97  1  0.91251697  0.54418182  0.86280720  1  -1.157404  -0.002575  -0.284614  -0.229179  -0.00179  3.298278  -0.002
N  N98  1  0.24163073  0.99251919  0.44190940  1  -1.213461  -0.075918  -0.343827  -0.206031  -0.052034  3.694252  -0.065
N  N99  1  0.25832716  0.50746535  0.94191037  1  -1.21334  0.075918  -0.343823  -0.206005  0.052036  3.693949  0.065
N  N100  1  0.75837691  0.00747800  0.55809116  1  -1.2136  -0.075915  -0.343864  -0.206034  -0.052033  3.694236  -0.065
N  N101  1  0.74166619  0.49253683  0.05808927  1  -1.213422  0.075918  -0.343763  -0.20592  0.052035  3.69378  0.065
O  O102  1  0.32811500  0.29059297  0.60804779  1  -1.204186  -0.001481  -0.437677  -0.681666  -0.000981  2.381638  -0.001
O  O103  1  0.17180767  0.20938590  0.10803472  1  -1.204117  0.00148  -0.437607  -0.681667  0.000981  2.381844  0.001
O  O104  1  0.67188422  0.70940261  0.39195416  1  -1.204186  -0.00148  -0.437682  -0.681784  -0.000981  2.381732  -0.001
O  O105  1  0.82819081  0.79061790  0.89196584  1  -1.204137  0.00148  -0.437627  -0.681666  0.000981  2.38184  0.001
O  O106  1  0.10798073  0.47086528  0.64574574  1  -1.176136  -5.1e-05  -0.350061  -0.615099  -2.9e-05  2.273235  0.0
O  O107  1  0.39191403  0.02911708  0.14574011  1  -1.175808  5.1e-05  -0.350143  -0.615031  2.8e-05  2.273118  0.0
O  O108  1  0.89202223  0.52913440  0.35425343  1  -1.17609  -5.1e-05  -0.350113  -0.615164  -2.8e-05  2.273321  0.0
O  O109  1  0.60808592  0.97088507  0.85426138  1  -1.175911  5.1e-05  -0.350163  -0.615094  2.8e-05  2.273059  0.0
O  O110  1  0.73622803  0.38952448  0.58462928  1  -1.274167  -0.000941  -0.652583  -0.879851  -0.000603  2.098358  -0.001
O  O111  1  0.76363268  0.11050475  0.08463562  1  -1.273664  0.00094  -0.652517  -0.879456  0.000602  2.09872  0.001
O  O112  1  0.26377421  0.61046863  0.41537128  1  -1.274238  -0.000942  -0.65255  -0.879819  -0.000603  2.098254  -0.001
O  O113  1  0.23636736  0.88949822  0.91536447  1  -1.273643  0.00094  -0.652556  -0.879519  0.000602  2.098684  0.001
O  O114  1  0.50841011  0.59841645  0.61146195  1  -1.298016  3.2e-05  -0.646989  -0.878727  2.3e-05  2.019645  0.0
O  O115  1  0.99142842  0.90159432  0.11145560  1  -1.298853  -3.1e-05  -0.646953  -0.87868  -2.3e-05  2.019447  0.0
O  O116  1  0.49160046  0.40157745  0.38853536  1  -1.298011  3.2e-05  -0.646966  -0.878656  2.3e-05  2.019734  0.0
O  O117  1  0.00856832  0.09840866  0.88854449  1  -1.298803  -3.2e-05  -0.646981  -0.878746  -2.3e-05  2.019422  0.0
O  O118  1  0.80345500  0.50500769  0.70140207  1  -1.185925  8e-06  -0.380884  -0.637539  1.2e-05  2.31942  0.0
O  O119  1  0.69645480  0.99500076  0.20140618  1  -1.185778  -9e-06  -0.381131  -0.638059  -1.2e-05  2.319261  0.0
O  O120  1  0.19654614  0.49499035  0.29859709  1  -1.185971  8e-06  -0.380827  -0.637485  1.2e-05  2.319381  0.0
O  O121  1  0.30354679  0.00500139  0.79859531  1  -1.185742  -9e-06  -0.381188  -0.63815  -1.2e-05  2.319349  0.0
O  O122  1  0.31585168  0.34220997  0.74485591  1  -1.180525  4.5e-05  -0.404106  -0.685938  2.6e-05  2.360535  0.0
O  O123  1  0.18418757  0.15778664  0.24484276  1  -1.180522  -4.5e-05  -0.404176  -0.686029  -2.6e-05  2.360592  0.0
O  O124  1  0.68415165  0.65779299  0.25514604  1  -1.180502  4.5e-05  -0.40414  -0.685993  2.6e-05  2.360489  0.0
O  O125  1  0.81581054  0.84221387  0.75515873  1  -1.180622  -4.5e-05  -0.404192  -0.686036  -2.6e-05  2.360628  0.0
O  O126  1  0.12900894  0.17454465  0.54720141  1  -1.143604  -0.004034  -0.295332  -0.530655  -0.002612  2.214953  -0.004
O  O127  1  0.37107118  0.32545500  0.04724288  1  -1.143715  0.004023  -0.295247  -0.530672  0.002605  2.214935  0.004
O  O128  1  0.87099852  0.82545090  0.45279823  1  -1.143702  -0.004034  -0.295242  -0.530669  -0.002612  2.215018  -0.004
O  O129  1  0.62892052  0.67454719  0.95275490  1  -1.143752  0.004023  -0.295251  -0.530689  0.002605  2.214953  0.004
O  O130  1  0.17143039  0.88336857  0.54532677  1  -1.095442  -0.10101  -0.310624  -0.511039  -0.06666  2.280255  -0.09
O  O131  1  0.32860983  0.61662865  0.04532065  1  -1.095421  0.10102  -0.31064  -0.511095  0.066666  2.280287  0.09
O  O132  1  0.82857542  0.11662698  0.45467333  1  -1.094824  -0.101016  -0.310646  -0.511062  -0.066662  2.280144  -0.09
O  O133  1  0.67138526  0.38337434  0.95467805  1  -1.094794  0.10103  -0.310709  -0.511118  0.06667  2.28013  0.09
O  O134  1  0.79739312  0.72980897  0.67206510  1  -1.182224  -0.000236  -0.292415  -0.519558  -0.000169  2.216442  0.0
O  O135  1  0.70246138  0.77020335  0.17205277  1  -1.181503  0.000236  -0.292506  -0.519601  0.00017  2.216217  0.0
O  O136  1  0.20259328  0.27018994  0.32793731  1  -1.181922  -0.000236  -0.292412  -0.519554  -0.000169  2.216407  0.0
O  O137  1  0.29754360  0.22979960  0.82794918  1  -1.180925  0.000236  -0.292461  -0.519556  0.00017  2.216326  0.0
O  O138  1  0.62789683  0.25814863  0.48649649  1  -1.175669  -0.018637  -0.292268  -0.517991  -0.012026  2.152225  -0.016
O  O139  1  0.87213420  0.24186754  0.98649435  1  -1.175372  0.018646  -0.292133  -0.517772  0.012031  2.152077  0.016
O  O140  1  0.37210550  0.74184530  0.51350221  1  -1.175629  -0.018637  -0.292209  -0.517947  -0.012025  2.152239  -0.016
O  O141  1  0.12785915  0.75813464  0.01350482  1  -1.175514  0.018644  -0.292165  -0.517845  0.01203  2.152142  0.016
