# generated using pymatgen
data_MnH8C10S2(N3O2)2
_symmetry_space_group_name_H-M   'P 1'
_cell_length_a   6.89773584
_cell_length_b   7.03124798
_cell_length_c   8.30276375
_cell_angle_alpha   83.28621717
_cell_angle_beta   66.19556164
_cell_angle_gamma   74.63355870
_symmetry_Int_Tables_number   1
_chemical_formula_structural   MnH8C10S2(N3O2)2
_chemical_formula_sum   'Mn1 H8 C10 S2 N6 O4'
_cell_volume   355.23120811
_cell_formula_units_Z   1
loop_
 _symmetry_equiv_pos_site_id
 _symmetry_equiv_pos_as_xyz
  1  'x, y, z'
loop_
 _atom_site_type_symbol
 _atom_site_label
 _atom_site_symmetry_multiplicity
 _atom_site_fract_x
 _atom_site_fract_y
 _atom_site_fract_z
 _atom_site_occupancy
 _atom_site_pbe_cm5_charge
 _atom_site_pbe_ddec_charge
 _atom_site_pbe_ddec_spin_density
 _atom_site_pbe_ddec_sum_bond_order
 _atom_site_pbe_magmom
Mn  Mn0  1  0.00000253  0.00000697  0.99999680  1  0.647373  0.949804  4.453166  2.702147  4.226
H  H1  1  0.67020498  0.15876737  0.44493759  1  0.124927  0.122898  0.00053  1.034594  0.0
H  H2  1  0.32977935  0.84124234  0.55507406  1  0.124861  0.12279  0.00053  1.034583  0.0
H  H3  1  0.35071077  0.02400159  0.26617692  1  0.133987  0.13574  -0.000248  1.022447  0.0
H  H4  1  0.64927592  0.97599916  0.73382648  1  0.134016  0.135758  -0.000248  1.022465  0.0
H  H5  1  0.62235090  0.77344638  0.05470214  1  0.140866  0.141162  -0.000357  1.011015  0.0
H  H6  1  0.37765827  0.22654696  0.94530181  1  0.140867  0.141186  -0.000357  1.010962  0.0
H  H7  1  0.24787631  0.57974671  0.84834710  1  0.13707  0.139105  0.000245  1.021156  0.0
H  H8  1  0.75213083  0.42024221  0.15165680  1  0.137052  0.139073  0.000245  1.021155  0.0
C  C9  1  0.81442574  0.08725767  0.47244479  1  0.048718  -0.052907  0.016379  3.874593  0.01
C  C10  1  0.18555193  0.91275344  0.52756050  1  0.048773  -0.052817  0.016387  3.874367  0.01
C  C11  1  0.19720465  0.00920932  0.37154308  1  0.046607  -0.056899  0.012892  3.846944  0.008
C  C12  1  0.80276957  0.99080913  0.62845895  1  0.046594  -0.056912  0.012882  3.846782  0.008
C  C13  1  0.56855105  0.64979271  0.03410697  1  0.053771  -0.048935  0.010563  3.825461  0.006
C  C14  1  0.43145722  0.35019180  0.96589823  1  0.053736  -0.049076  0.010565  3.825496  0.006
C  C15  1  0.35990128  0.53974069  0.91557768  1  0.052017  -0.046055  0.014713  3.835277  0.009
C  C16  1  0.64010945  0.46024667  0.08442037  1  0.052086  -0.046092  0.014713  3.835354  0.009
C  C17  1  0.15346155  0.30393256  0.69000315  1  0.1444  0.277891  0.031308  4.334595  0.03
C  C18  1  0.84655045  0.69608700  0.30997775  1  0.144238  0.277614  0.031301  4.334828  0.03
S  S19  1  0.27835388  0.41297215  0.51208371  1  -0.149012  -0.298499  0.041361  2.432882  0.03
S  S20  1  0.72163805  0.58702690  0.48790489  1  -0.14903  -0.298487  0.041337  2.432412  0.03
N  N21  1  0.01201945  0.09472153  0.34266830  1  -0.106343  0.328601  0.029138  3.971123  0.031
N  N22  1  0.98796970  0.90528807  0.65733574  1  -0.106397  0.328459  0.029143  3.97046  0.031
N  N23  1  0.42854007  0.69027279  0.94971990  1  -0.105448  0.326276  0.028028  3.950771  0.03
N  N24  1  0.57146670  0.30971757  0.05028155  1  -0.105416  0.326373  0.028026  3.950749  0.03
N  N25  1  0.06216222  0.22287459  0.82341816  1  -0.429716  -0.528039  0.016225  3.26712  -0.01
N  N26  1  0.93786923  0.77711849  0.17656997  1  -0.429565  -0.527741  0.016224  3.26754  -0.01
O  O27  1  0.02452497  0.17823649  0.19003925  1  -0.208021  -0.457835  0.035061  2.114759  0.019
O  O28  1  0.97546404  0.82176734  0.80997389  1  -0.208021  -0.457798  0.035071  2.114449  0.019
O  O29  1  0.35730915  0.87293824  0.90498161  1  -0.207457  -0.457266  0.037586  2.095257  0.023
O  O30  1  0.64270045  0.12705353  0.09501514  1  -0.207532  -0.457371  0.03759  2.095332  0.023
