# generated using pymatgen
data_Mn3H32C24(NO7)2
_symmetry_space_group_name_H-M   'P 1'
_cell_length_a   8.85448624
_cell_length_b   9.12179269
_cell_length_c   9.32080089
_cell_angle_alpha   92.56098476
_cell_angle_beta   96.97633264
_cell_angle_gamma   114.86806205
_symmetry_Int_Tables_number   1
_chemical_formula_structural   Mn3H32C24(NO7)2
_chemical_formula_sum   'Mn3 H32 C24 N2 O14'
_cell_volume   674.12573646
_cell_formula_units_Z   1
loop_
 _symmetry_equiv_pos_site_id
 _symmetry_equiv_pos_as_xyz
  1  'x, y, z'
loop_
 _atom_site_type_symbol
 _atom_site_label
 _atom_site_symmetry_multiplicity
 _atom_site_fract_x
 _atom_site_fract_y
 _atom_site_fract_z
 _atom_site_occupancy
 _atom_site_hle17_ddec_charge
 _atom_site_hle17_ddec_spin_density
 _atom_site_hle17_ddec_sum_bond_order
 _atom_site_hle17_magmom
 _atom_site_hse06_10hf_ddec_charge
 _atom_site_hse06_10hf_ddec_spin_density
 _atom_site_hse06_10hf_ddec_sum_bond_order
 _atom_site_hse06_10hf_magmom
 _atom_site_hse06_ddec_charge
 _atom_site_hse06_ddec_spin_density
 _atom_site_hse06_ddec_sum_bond_order
 _atom_site_hse06_magmom
 _atom_site_pbe_cm5_charge
 _atom_site_pbe_ddec_charge
 _atom_site_pbe_ddec_spin_density
 _atom_site_pbe_ddec_sum_bond_order
 _atom_site_pbe_magmom
Mn  Mn0  1  0.99999936  0.49999975  0.49999488  1  1.268823  4.813206  1.703492  4.695  1.114981  4.744467  2.207353  4.563  1.175599  4.78073  2.129382  4.619  0.598105  1.067635  4.707357  2.263125  4.509
Mn  Mn1  1  0.12106464  0.64176201  0.86663835  1  1.238994  4.77943  1.746223  4.661  1.079169  4.70634  2.268392  4.518  1.144805  4.750834  2.185053  4.584  0.620712  1.026235  4.662499  2.329817  4.456
Mn  Mn2  1  0.87893268  0.35823881  0.13335651  1  1.238949  4.779424  1.746318  4.661  1.079149  4.706315  2.268462  4.518  1.14478  4.750819  2.18514  4.584  0.620682  1.026237  4.662473  2.329859  4.456
H  H3  1  0.82440211  0.89052444  0.51474317  1  0.066495  0.000138  0.928122  0.0  0.079224  0.000373  0.986583  0.0  0.080911  0.000247  0.986117  0.0  0.097301  0.078153  0.000478  0.987009  0.0
H  H4  1  0.17559754  0.10947391  0.48525721  1  0.066505  0.000135  0.928152  0.0  0.079248  0.000373  0.986588  0.0  0.080937  0.000247  0.986121  0.0  0.097311  0.078177  0.000478  0.98701  0.0
H  H5  1  0.58456195  0.65903266  0.58609417  1  0.080419  -0.000188  0.932898  0.0  0.099221  -0.000189  0.991877  0.0  0.100506  -0.0002  0.991956  0.0  0.096582  0.097927  -0.000148  0.992398  0.0
H  H6  1  0.41543937  0.34096691  0.41390646  1  0.080429  -0.000179  0.932877  0.0  0.099234  -0.000189  0.991845  0.0  0.100521  -0.0002  0.991925  0.0  0.096588  0.097943  -0.000148  0.992365  0.0
H  H7  1  0.64596066  0.74322568  0.77011647  1  0.071212  -0.000134  0.945065  0.0  0.089267  -6.8e-05  1.011469  0.0  0.089731  -0.000106  1.012405  0.0  0.093659  0.088457  -2e-06  1.011174  0.0
H  H8  1  0.35404012  0.25677268  0.22988296  1  0.07121  -0.000127  0.945064  0.0  0.089261  -6.9e-05  1.011476  0.0  0.089725  -0.000106  1.012412  0.0  0.093664  0.088453  -2e-06  1.011183  0.0
H  H9  1  0.52699357  0.88799540  0.51573053  1  0.067157  2e-06  0.944491  0.0  0.080468  0.000197  1.005284  0.0  0.081476  0.000101  1.005852  0.0  0.098652  0.079744  0.000335  1.005259  0.0
H  H10  1  0.47300889  0.11200418  0.48426916  1  0.067195  2e-06  0.944519  0.0  0.08049  0.000198  1.005322  0.0  0.081497  0.000101  1.00589  0.0  0.098669  0.079766  0.000334  1.005295  0.0
H  H11  1  0.54830695  0.10465788  0.70244240  1  0.064398  -7.4e-05  0.952548  0.0  0.080914  -2e-05  1.01976  0.0  0.081632  -5.5e-05  1.020056  0.0  0.08909  0.080571  -3.9e-05  1.019089  0.0
H  H12  1  0.45169551  0.89534169  0.29755943  1  0.064425  -7.6e-05  0.952462  0.0  0.080928  -1.9e-05  1.019695  0.0  0.081647  -5.5e-05  1.019989  0.0  0.089088  0.080585  -3.9e-05  1.019029  0.0
H  H13  1  0.62688173  0.01771900  0.83927284  1  0.081043  -0.000451  0.944137  0.0  0.099062  -0.000421  1.007174  0.0  0.100332  -0.000462  1.007131  0.0  0.097054  0.098076  -0.000347  1.007153  0.0
H  H14  1  0.37311905  0.98227936  0.16072874  1  0.08106  -0.000448  0.944139  0.0  0.099077  -0.000421  1.007174  0.0  0.100346  -0.000461  1.007132  0.0  0.097061  0.098088  -0.000347  1.007157  0.0
H  H15  1  0.79993151  0.15786374  0.57773583  1  0.084148  -0.000118  0.942106  0.0  0.094642  0.000111  1.002629  0.0  0.096583  -5e-05  1.002692  0.0  0.103908  0.092939  0.000434  1.002828  0.001
H  H16  1  0.20006927  0.84213461  0.42226575  1  0.084145  -0.000107  0.942041  0.0  0.09466  0.000111  1.002579  0.0  0.096601  -5e-05  1.002643  0.0  0.103911  0.092956  0.000434  1.002776  0.001
H  H17  1  0.03539175  0.10783135  0.69375790  1  0.074562  -0.000217  0.944967  0.0  0.089731  -0.000223  1.011901  0.0  0.090865  -0.000242  1.012202  0.0  0.092393  0.088943  -0.000189  1.011295  0.0
H  H18  1  0.96460903  0.89216701  0.30624261  1  0.074594  -0.000207  0.944942  0.0  0.089766  -0.000223  1.011855  0.0  0.090899  -0.000242  1.012156  0.0  0.092397  0.088979  -0.000189  1.011258  0.0
H  H19  1  0.92402841  0.02107878  0.83736687  1  0.076341  -0.00035  0.938539  0.0  0.093791  -0.000345  1.002764  0.0  0.095033  -0.000371  1.002716  0.0  0.093131  0.092632  -0.000327  1.003051  0.0
H  H20  1  0.07597237  0.97891958  0.16263256  1  0.076348  -0.000333  0.938547  0.0  0.093797  -0.000345  1.002759  0.0  0.09504  -0.000371  1.002711  0.0  0.093138  0.09264  -0.000327  1.00305  0.0
H  H21  1  0.20435869  0.32823415  0.03420654  1  0.049924  -0.000527  0.970568  0.0  0.055732  1e-06  1.046652  0.0  0.058218  -0.000259  1.041186  0.0  0.124717  0.053834  0.000284  1.050649  0.0
H  H22  1  0.79564143  0.67176784  0.96579621  1  0.049921  -0.000526  0.970609  0.0  0.055737  1e-06  1.046676  0.0  0.058221  -0.000259  1.041215  0.0  0.124722  0.053839  0.000284  1.05067  0.0
H  H23  1  0.39144381  0.46466990  0.71313161  1  0.121455  -0.000542  0.959373  0.0  0.137179  -0.000633  1.02625  0.0  0.138958  -0.000658  1.025381  0.0  0.114411  0.135717  -0.000595  1.027238  0.0
H  H24  1  0.60855573  0.53533331  0.28687113  1  0.121492  -0.000548  0.959306  0.0  0.137206  -0.000633  1.026196  0.0  0.138986  -0.000658  1.025326  0.0  0.114407  0.135743  -0.000595  1.027186  0.0
H  H25  1  0.38116518  0.26899073  0.66348786  1  0.093897  0.000101  0.952745  0.0  0.115164  0.000188  1.019075  0.0  0.115616  0.000139  1.018658  0.0  0.105113  0.11457  0.000279  1.019456  0.0
H  H26  1  0.61883435  0.73101249  0.33651274  1  0.09391  9.8e-05  0.952755  0.0  0.11517  0.000188  1.019103  0.0  0.115621  0.000139  1.018691  0.0  0.105122  0.114578  0.000279  1.019486  0.0
H  H27  1  0.55980038  0.41379456  0.78351795  1  0.105549  3e-06  0.924814  0.0  0.12879  0.000161  0.982028  0.0  0.128707  3.5e-05  0.982704  0.0  0.108109  0.128357  0.000272  0.982134  0.0
H  H28  1  0.44019807  0.58620622  0.21648347  1  0.105477  3e-06  0.924817  0.0  0.128802  0.000161  0.981921  0.0  0.128719  3.4e-05  0.982598  0.0  0.108121  0.128373  0.000272  0.982027  0.0
H  H29  1  0.45290527  0.16710795  0.96706052  1  0.113853  -0.000155  0.926985  0.0  0.133422  5e-06  0.989742  0.0  0.134581  -0.000106  0.989272  0.0  0.109683  0.132606  0.000151  0.990001  0.0
H  H30  1  0.54709545  0.83289283  0.03294117  1  0.113904  -0.000158  0.927004  0.0  0.13347  4e-06  0.989757  0.0  0.134628  -0.000106  0.989285  0.0  0.109702  0.132654  0.000151  0.990012  0.0
H  H31  1  0.28159687  0.05915914  0.82385601  1  0.110488  -0.000129  0.949513  0.0  0.126466  6e-05  1.017716  0.0  0.127772  -7.6e-05  1.017391  0.0  0.105996  0.125653  0.000123  1.017253  0.0
H  H32  1  0.71840212  0.94084286  0.17614661  1  0.11043  -0.000132  0.949507  0.0  0.126429  6e-05  1.01768  0.0  0.127734  -7.5e-05  1.017356  0.0  0.106004  0.12562  0.000123  1.017219  0.0
H  H33  1  0.24034155  0.10987331  0.99689125  1  0.103229  -7.2e-05  0.949302  0.0  0.122159  -6.6e-05  1.017386  0.0  0.123179  -8.2e-05  1.016532  0.0  0.109973  0.121279  -8e-06  1.018104  0.0
H  H34  1  0.75965972  0.89012868  0.00311056  1  0.103234  -7.5e-05  0.949185  0.0  0.122141  -6.6e-05  1.017301  0.0  0.123162  -8.2e-05  1.016443  0.0  0.109972  0.121267  -8e-06  1.018013  0.0
C  C35  1  0.92153348  0.76799887  0.66169411  1  0.700589  0.00798  3.804542  0.008  0.649875  0.014895  4.100692  0.014  0.685302  0.011296  4.094034  0.011  0.230357  0.62592  0.018162  4.103197  0.016
C  C36  1  0.07846616  0.23199950  0.33830519  1  0.700627  0.007959  3.804505  0.008  0.649916  0.014897  4.100654  0.014  0.685345  0.011287  4.093991  0.011  0.230365  0.625951  0.018161  4.103175  0.016
C  C37  1  0.82584565  0.87132515  0.63064435  1  -0.112448  0.002308  3.644213  0.002  -0.110912  0.00276  3.884202  0.002  -0.116489  0.001948  3.897395  0.002  -0.089631  -0.108016  0.003946  3.875613  0.003
C  C38  1  0.17415453  0.12867443  0.36935507  1  -0.112516  0.002327  3.644252  0.002  -0.110999  0.00276  3.884247  0.002  -0.116578  0.00195  3.897438  0.002  -0.08967  -0.108102  0.003946  3.87566  0.003
C  C39  1  0.64390228  0.77406255  0.65731428  1  -0.128481  0.000166  3.642078  0.0  -0.179809  0.000962  3.893863  0.001  -0.180041  0.000572  3.907455  0.001  -0.158527  -0.179304  0.001899  3.885099  0.002
C  C40  1  0.35609791  0.22593703  0.34268514  1  -0.128444  0.000143  3.64206  0.0  -0.179758  0.00096  3.893828  0.001  -0.17999  0.000572  3.90742  0.001  -0.158499  -0.179261  0.001899  3.885082  0.002
C  C41  1  0.53814191  0.87033005  0.63203752  1  -0.115343  0.002201  3.645436  0.002  -0.115161  0.002752  3.886449  0.002  -0.120688  0.001877  3.90016  0.002  -0.091152  -0.112035  0.003784  3.877596  0.003
C  C42  1  0.46185827  0.12966952  0.36796405  1  -0.115457  0.002211  3.645455  0.002  -0.115263  0.002746  3.886489  0.002  -0.120791  0.001884  3.900204  0.002  -0.091213  -0.112135  0.003784  3.877635  0.003
C  C43  1  0.36032344  0.76586615  0.66162901  1  0.688177  0.009635  3.815524  0.009  0.635636  0.016821  4.119148  0.015  0.670974  0.012976  4.112122  0.012  0.226179  0.611587  0.019926  4.121866  0.017
C  C44  1  0.63967674  0.23413342  0.33837149  1  0.688288  0.009631  3.815389  0.009  0.635681  0.016824  4.119126  0.015  0.671018  0.012971  4.1121  0.012  0.226191  0.611627  0.019925  4.121852  0.017
C  C45  1  0.62290845  0.03517610  0.72337216  1  -0.127952  0.0004  3.675257  0.001  -0.18188  0.001091  3.93128  0.001  -0.181448  0.000651  3.944287  0.001  -0.165341  -0.181797  0.001301  3.922172  0.001
C  C46  1  0.37709287  0.96482348  0.27662739  1  -0.127986  0.0004  3.675143  0.001  -0.18187  0.001096  3.931183  0.001  -0.181441  0.000649  3.944196  0.001  -0.165333  -0.181782  0.001301  3.922065  0.001
C  C47  1  0.80240250  0.13268496  0.69187010  1  -0.128415  0.001026  3.641916  0.002  -0.128228  0.001708  3.879829  0.002  -0.135073  0.000921  3.893619  0.001  -0.089988  -0.123792  0.002745  3.870612  0.003
C  C48  1  0.19759828  0.86731341  0.30812827  1  -0.128395  0.001015  3.641859  0.002  -0.128329  0.001703  3.879953  0.002  -0.135175  0.000923  3.89374  0.001  -0.08998  -0.123883  0.002745  3.870716  0.003
C  C49  1  0.90908680  0.03736537  0.72106793  1  -0.119357  0.000252  3.634289  0.001  -0.172762  0.000884  3.891256  0.001  -0.172838  0.000487  3.904622  0.001  -0.159221  -0.17196  0.001384  3.881917  0.002
C  C50  1  0.09091344  0.96263177  0.27893246  1  -0.119405  0.000206  3.634342  0.0  -0.172749  0.000885  3.891275  0.001  -0.172826  0.000486  3.904646  0.001  -0.159209  -0.171941  0.001384  3.881921  0.002
C  C51  1  0.88688174  0.29384141  0.78569912  1  0.729908  0.011943  3.754094  0.014  0.679737  0.020419  4.041974  0.02  0.716811  0.015656  4.033449  0.017  0.247786  0.654349  0.024929  4.045517  0.024
C  C52  1  0.11312072  0.70615818  0.21429735  1  0.729987  0.011922  3.75404  0.014  0.67984  0.02042  4.04194  0.02  0.716919  0.015654  4.033412  0.017  0.247807  0.654448  0.024927  4.045491  0.024
C  C53  1  0.27324144  0.39060335  0.94744214  1  0.394832  0.006553  3.784359  0.007  0.31887  0.010347  4.07085  0.01  0.347928  0.007405  4.071326  0.007  0.178558  0.298776  0.013524  4.06952  0.012
C  C54  1  0.72675967  0.60940594  0.05256000  1  0.394846  0.006558  3.784369  0.007  0.318892  0.010354  4.070791  0.01  0.347951  0.007409  4.071265  0.007  0.178525  0.298806  0.01353  4.069452  0.012
C  C55  1  0.42275655  0.36784685  0.75158198  1  -0.169164  -0.000558  3.62642  0.0  -0.270958  -0.000263  3.873364  0.0  -0.266528  -0.00041  3.882232  0.0  -0.131278  -0.273784  -9.3e-05  3.867969  0.0
C  C56  1  0.57724412  0.63215637  0.24841875  1  -0.169093  -0.00053  3.626319  0.0  -0.270941  -0.000262  3.873252  0.0  -0.266514  -0.00041  3.88212  0.0  -0.131264  -0.273771  -9.3e-05  3.867864  0.0
C  C57  1  0.32720437  0.15186419  0.91764386  1  -0.180055  -0.000121  3.641695  0.0  -0.285289  0.000299  3.900864  0.0  -0.281928  5.1e-05  3.910431  0.0  -0.130381  -0.28763  0.000516  3.894065  0.0
C  C58  1  0.67279294  0.84813659  0.08235852  1  -0.180003  -9.6e-05  3.64148  0.0  -0.285232  0.000299  3.900667  0.0  -0.281867  5e-05  3.910232  0.0  -0.130373  -0.287578  0.000517  3.893869  0.0
N  N59  1  0.33488680  0.30533821  0.87310829  1  -0.081037  0.005732  3.515744  0.007  0.023067  0.00907  3.749545  0.01  0.002972  0.007228  3.775196  0.008  -0.279271  0.036205  0.011052  3.731829  0.012
N  N60  1  0.66511338  0.69466137  0.12689113  1  -0.08113  0.005714  3.515909  0.007  0.022981  0.009072  3.749747  0.01  0.002887  0.007229  3.775397  0.008  -0.279311  0.036111  0.011054  3.732041  0.012
O  O61  1  0.95609029  0.70538305  0.55328485  1  -0.6594  0.033854  2.040591  0.021  -0.596285  0.042468  2.311827  0.026  -0.627109  0.037284  2.297748  0.021  -0.308212  -0.573328  0.046422  2.320163  0.03
O  O62  1  0.04390881  0.29461408  0.44671648  1  -0.659426  0.033864  2.040573  0.021  -0.596296  0.042467  2.311779  0.026  -0.627121  0.037293  2.297701  0.021  -0.308226  -0.573333  0.046424  2.320115  0.03
O  O63  1  0.95620556  0.74830484  0.79454233  1  -0.668696  0.035905  2.028232  0.026  -0.60024  0.042563  2.295331  0.029  -0.632958  0.037132  2.281379  0.024  -0.314867  -0.575871  0.048489  2.30431  0.035
O  O64  1  0.04379403  0.25169595  0.20545816  1  -0.668705  0.035908  2.02824  0.026  -0.600259  0.042563  2.295334  0.029  -0.632977  0.037125  2.28138  0.024  -0.314878  -0.575891  0.048487  2.304318  0.035
O  O65  1  0.27031296  0.63979032  0.57374890  1  -0.665219  0.031762  2.011449  0.02  -0.609208  0.042361  2.284247  0.027  -0.63886  0.037138  2.269759  0.022  -0.310283  -0.587708  0.047086  2.29324  0.031
O  O66  1  0.72968495  0.36020925  0.42625241  1  -0.665292  0.031769  2.011391  0.02  -0.609259  0.042363  2.284238  0.027  -0.638905  0.037136  2.269741  0.022  -0.310307  -0.587757  0.047089  2.293234  0.031
O  O67  1  0.31564044  0.80943233  0.77533858  1  -0.657352  0.040644  2.041661  0.028  -0.586339  0.046973  2.313068  0.03  -0.619149  0.040579  2.298664  0.024  -0.314042  -0.561543  0.053582  2.321274  0.037
O  O68  1  0.68436196  0.19056967  0.22466336  1  -0.657341  0.040638  2.041656  0.028  -0.586329  0.046973  2.313125  0.03  -0.619134  0.040581  2.298715  0.024  -0.314035  -0.561536  0.053581  2.321335  0.037
O  O69  1  0.88547243  0.29330734  0.92121292  1  -0.67004  0.041575  2.086023  0.023  -0.604078  0.057257  2.381468  0.032  -0.635512  0.050355  2.359989  0.027  -0.304944  -0.579846  0.063546  2.39446  0.038
O  O70  1  0.11453052  0.70669589  0.07878699  1  -0.670052  0.041584  2.086022  0.023  -0.604084  0.057252  2.381459  0.032  -0.635517  0.050353  2.35998  0.027  -0.304955  -0.579853  0.063542  2.394461  0.038
O  O71  1  0.96228100  0.42521438  0.72700238  1  -0.692601  0.061893  2.132404  0.035  -0.613382  0.078454  2.4241  0.044  -0.648719  0.070759  2.40428  0.038  -0.291867  -0.587093  0.087343  2.437414  0.053
O  O72  1  0.03772152  0.57478278  0.27299397  1  -0.692626  0.061905  2.13234  0.035  -0.613423  0.07846  2.424049  0.044  -0.648765  0.07076  2.404231  0.038  -0.291864  -0.58714  0.087345  2.437375  0.053
O  O73  1  0.29000551  0.53074390  0.92207187  1  -0.575497  0.023517  2.118017  0.012  -0.514549  0.030475  2.402291  0.016  -0.543355  0.027044  2.391534  0.013  -0.303422  -0.492658  0.033584  2.40831  0.018
O  O74  1  0.70999029  0.46924838  0.07792885  1  -0.575539  0.023532  2.117775  0.012  -0.514571  0.030478  2.401985  0.016  -0.54338  0.027046  2.391227  0.013  -0.303376  -0.492679  0.033587  2.408  0.018
