# generated using pymatgen
data_AgPH12C6(NO)4
_symmetry_space_group_name_H-M   'P 1'
_cell_length_a   7.70149404
_cell_length_b   9.99102515
_cell_length_c   13.49980000
_cell_angle_alpha   90.00000000
_cell_angle_beta   90.00000000
_cell_angle_gamma   90.00000000
_symmetry_Int_Tables_number   1
_chemical_formula_structural   AgPH12C6(NO)4
_chemical_formula_sum   'Ag4 P4 H48 C24 N16 O16'
_cell_volume   1038.75319041
_cell_formula_units_Z   4
loop_
 _symmetry_equiv_pos_site_id
 _symmetry_equiv_pos_as_xyz
  1  'x, y, z'
loop_
 _atom_site_type_symbol
 _atom_site_label
 _atom_site_symmetry_multiplicity
 _atom_site_fract_x
 _atom_site_fract_y
 _atom_site_fract_z
 _atom_site_occupancy
 _atom_site_hle17_bader_spin_density
 _atom_site_hle17_ddec_charge
 _atom_site_hle17_ddec_spin_density
 _atom_site_hle17_ddec_sum_bond_order
 _atom_site_hle17_magmom
 _atom_site_hse06_10hf_bader_spin_density
 _atom_site_hse06_10hf_ddec_charge
 _atom_site_hse06_10hf_ddec_spin_density
 _atom_site_hse06_10hf_ddec_sum_bond_order
 _atom_site_hse06_10hf_magmom
 _atom_site_hse06_bader_spin_density
 _atom_site_hse06_ddec_charge
 _atom_site_hse06_ddec_spin_density
 _atom_site_hse06_ddec_sum_bond_order
 _atom_site_hse06_magmom
 _atom_site_pbe_bader_charge
 _atom_site_pbe_bader_spin_density
 _atom_site_pbe_cm5_charge
 _atom_site_pbe_ddec_charge
 _atom_site_pbe_ddec_spin_density
 _atom_site_pbe_ddec_sum_bond_order
 _atom_site_pbe_magmom
Ag  Ag0  1  0.19288076  0.25870118  0.78510422  1  0  0.562845  0  1.233586  0  0  0.422329  0  1.622585  0  0  0.456713  0  1.577475  0  0.594145  0  0.458777  0.397248  0  1.654024  0
Ag  Ag1  1  0.69288114  0.24129856  0.21489578  1  0  0.562759  0  1.233636  0  0  0.422334  0  1.622574  0  0  0.456717  0  1.577465  0  0.594148  0  0.458784  0.397254  0  1.654013  0
Ag  Ag2  1  0.80711872  0.75870092  0.71489578  1  0  0.562866  0  1.233574  0  0  0.422358  0  1.622559  0  0  0.45674  0  1.57745  0  0.594146  0  0.458787  0.397276  0  1.654001  0
Ag  Ag3  1  0.30711833  0.74129830  0.28510422  1  0  0.562853  0  1.233541  0  0  0.422334  0  1.622548  0  0  0.45672  0  1.577434  0  0.594119  0  0.45877  0.397255  0  1.653987  0
P  P4  1  0.35087088  0.48544068  0.97606557  1  0  0.997513  0  4.281  0  0  0.909795  0  4.719463  0  0  0.939314  0  4.709627  0  2.589525  0  0.223625  0.889165  0  4.725706  0
P  P5  1  0.85086867  0.01456007  0.02393517  1  0  0.9976  0  4.280926  0  0  0.909893  0  4.719386  0  0  0.939411  0  4.709556  0  2.589534  0  0.223688  0.889263  0  4.725629  0
P  P6  1  0.64912989  0.98544242  0.52393517  1  0  0.997456  0  4.281008  0  0  0.909735  0  4.719496  0  0  0.939263  0  4.70966  0  2.589368  0  0.223612  0.889104  0  4.725742  0
P  P7  1  0.14912951  0.51455881  0.47606483  1  0  0.997548  0  4.281004  0  0  0.909847  0  4.719474  0  0  0.939364  0  4.709637  0  2.589473  0  0.223661  0.889215  0  4.725726  0
H  H8  1  0.21427790  0.67920157  0.04956296  1  0  0.118792  0  0.97884  0  0  0.127642  0  1.048548  0  0  0.129767  0  1.048262  0  0.138995  0  0.114614  0.126047  0  1.048866  0
H  H9  1  0.71427699  0.82079765  0.95043704  1  0  0.118764  0  0.978867  0  0  0.127619  0  1.048568  0  0  0.129744  0  1.048282  0  0.138981  0  0.114604  0.126025  0  1.048886  0
H  H10  1  0.78572287  0.17920283  0.45043704  1  0  0.118779  0  0.978835  0  0  0.127643  0  1.048532  0  0  0.129769  0  1.048247  0  0.138975  0  0.114613  0.126049  0  1.048846  0
H  H11  1  0.28572248  0.32079691  0.54956296  1  0  0.118767  0  0.97886  0  0  0.127623  0  1.048564  0  0  0.129748  0  1.048278  0  0.138976  0  0.114606  0.12603  0  1.04888  0
H  H12  1  0.16556787  0.52855837  0.11641135  1  0  0.145584  0  0.935699  0  0  0.158877  0  0.992905  0  0  0.161179  0  0.991806  0  0.119548  0  0.121266  0.157149  0  0.993761  0
H  H13  1  0.66556826  0.97144085  0.88358791  1  0  0.145587  0  0.93569  0  0  0.158874  0  0.992908  0  0  0.161179  0  0.991801  0  0.119546  0  0.121267  0.157143  0  0.993773  0
H  H14  1  0.83443160  0.02855863  0.38358865  1  0  0.145575  0  0.935689  0  0  0.158869  0  0.992898  0  0  0.161168  0  0.991807  0  0.119552  0  0.121266  0.157141  0  0.993754  0
H  H15  1  0.33443121  0.47144111  0.61641209  1  0  0.145586  0  0.935698  0  0  0.158868  0  0.992918  0  0  0.161173  0  0.991811  0  0.11955  0  0.121263  0.157139  0  0.993779  0
H  H16  1  0.61427172  0.53244086  0.88125602  1  0  0.126593  0  0.938885  0  0  0.134434  0  1.008978  0  0  0.137117  0  1.006565  0  0.098134  0  0.114188  0.132361  0  1.011008  0
H  H17  1  0.11426874  0.96755837  0.11874324  1  0  0.126593  0  0.938915  0  0  0.13444  0  1.008986  0  0  0.137118  0  1.006588  0  0.098145  0  0.114188  0.132367  0  1.011016  0
H  H18  1  0.38572905  0.03244112  0.61874398  1  0  0.1266  0  0.938895  0  0  0.13444  0  1.00898  0  0  0.137123  0  1.006578  0  0.098134  0  0.114186  0.132367  0  1.011011  0
H  H19  1  0.88572944  0.46755963  0.38125602  1  0  0.126598  0  0.938894  0  0  0.134442  0  1.008982  0  0  0.137124  0  1.006573  0  0.098136  0  0.114187  0.132368  0  1.011014  0
H  H20  1  0.49169421  0.68078499  0.90205633  1  0  0.125984  0  0.94859  0  0  0.136809  0  1.012206  0  0  0.139003  0  1.011429  0  0.125726  0  0.112768  0.135103  0  1.013061  0
H  H21  1  0.99169459  0.81921423  0.09794367  1  0  0.125911  0  0.948613  0  0  0.136772  0  1.012192  0  0  0.138967  0  1.011415  0  0.12572  0  0.112742  0.135066  0  1.013048  0
H  H22  1  0.50830527  0.18078625  0.59794367  1  0  0.126008  0  0.948583  0  0  0.136838  0  1.012186  0  0  0.139035  0  1.01141  0  0.125697  0  0.112766  0.135132  0  1.013041  0
H  H23  1  0.00830618  0.31921449  0.40205633  1  0  0.125969  0  0.948603  0  0  0.136813  0  1.012196  0  0  0.139008  0  1.011418  0  0.125719  0  0.112765  0.135108  0  1.013051  0
H  H24  1  0.36493698  0.28996023  0.08169603  1  0  0.132032  0  0.985993  0  0  0.139948  0  1.054575  0  0  0.143637  0  1.051545  0  0.163133  0  0.113352  0.137074  0  1.057114  0
H  H25  1  0.86493607  0.21003951  0.91830472  1  0  0.132067  0  0.985952  0  0  0.139952  0  1.054571  0  0  0.143642  0  1.051541  0  0.163134  0  0.113349  0.137077  0  1.05711  0
H  H26  1  0.63506379  0.78996298  0.41830472  1  0  0.132069  0  0.985976  0  0  0.139959  0  1.054591  0  0  0.143647  0  1.051565  0  0.163147  0  0.113353  0.137085  0  1.057131  0
H  H27  1  0.13506340  0.71003925  0.58169528  1  0  0.132049  0  0.985989  0  0  0.139936  0  1.054612  0  0  0.143624  0  1.051584  0  0.163136  0  0.113343  0.137063  0  1.057153  0
H  H28  1  0.53708800  0.28852795  0.99330138  1  0  0.130393  0  0.956189  0  0  0.139237  0  1.023076  0  0  0.141551  0  1.022403  0  0.11921  0  0.113514  0.137491  0  1.023733  0
H  H29  1  0.03708761  0.21147279  0.00669862  1  0  0.130374  0  0.956208  0  0  0.139238  0  1.023066  0  0  0.141553  0  1.022392  0  0.1192  0  0.11351  0.137491  0  1.023724  0
H  H30  1  0.46291278  0.78852969  0.50669862  1  0  0.130413  0  0.956163  0  0  0.139263  0  1.02304  0  0  0.141577  0  1.022366  0  0.119236  0  0.113522  0.137517  0  1.023698  0
H  H31  1  0.96291187  0.71147254  0.49330138  1  0  0.130387  0  0.956176  0  0  0.139239  0  1.023056  0  0  0.141551  0  1.022383  0  0.119203  0  0.113512  0.137493  0  1.023716  0
H  H32  1  0.80778482  0.52820205  0.12891228  1  0  0.087035  0  0.94191  0  0  0.094118  0  1.016883  0  0  0.09587  0  1.014126  0  0.100528  0  0.11872  0.092679  0  1.019093  0
H  H33  1  0.30778444  0.97179717  0.87108772  1  0  0.087043  0  0.941907  0  0  0.094131  0  1.016884  0  0  0.095884  0  1.014127  0  0.100549  0  0.118713  0.092691  0  1.019095  0
H  H34  1  0.19221595  0.02820231  0.37108772  1  0  0.087014  0  0.941982  0  0  0.094109  0  1.016942  0  0  0.095862  0  1.014183  0  0.100527  0  0.118728  0.092668  0  1.019157  0
H  H35  1  0.69221634  0.47179743  0.62891228  1  0  0.087035  0  0.941923  0  0  0.094122  0  1.016905  0  0  0.095876  0  1.014145  0  0.100535  0  0.118699  0.092681  0  1.019119  0
H  H36  1  0.78357523  0.43635762  0.01559949  1  0  0.08908  0  0.899357  0  0  0.10674  0  0.954031  0  0  0.106877  0  0.954217  0  0.060924  0  0.124456  0.106438  0  0.954129  0
H  H37  1  0.28357485  0.06364212  0.98440051  1  0  0.089087  0  0.899351  0  0  0.106746  0  0.954027  0  0  0.106883  0  0.954213  0  0.060928  0  0.12446  0.106445  0  0.954124  0
H  H38  1  0.21642554  0.93635737  0.48440051  1  0  0.089095  0  0.899319  0  0  0.106761  0  0.953992  0  0  0.106898  0  0.954178  0  0.06094  0  0.124469  0.106459  0  0.95409  0
H  H39  1  0.71642463  0.56364186  0.51559949  1  0  0.089101  0  0.899317  0  0  0.10677  0  0.953985  0  0  0.106907  0  0.954172  0  0.060923  0  0.124465  0.106467  0  0.954084  0
H  H40  1  0.49089826  0.78364531  0.06494689  1  0  0.079696  0  0.909725  0  0  0.094473  0  0.972105  0  0  0.095279  0  0.970963  0  0.061577  0  0.120507  0.093958  0  0.972639  0
H  H41  1  0.99089864  0.71635392  0.93505311  1  0  0.079706  0  0.90977  0  0  0.094505  0  0.972118  0  0  0.095311  0  0.970976  0  0.061568  0  0.120519  0.09399  0  0.972652  0
H  H42  1  0.50910122  0.28364557  0.43505311  1  0  0.079724  0  0.909771  0  0  0.094518  0  0.972111  0  0  0.095324  0  0.970968  0  0.061577  0  0.120528  0.094003  0  0.972645  0
H  H43  1  0.00910213  0.21635417  0.56494689  1  0  0.079731  0  0.909762  0  0  0.09451  0  0.972123  0  0  0.095316  0  0.970981  0  0.06157  0  0.120522  0.093995  0  0.972657  0
H  H44  1  0.64201829  0.72506574  0.15673343  1  0  0.076167  0  0.946077  0  0  0.084783  0  1.019882  0  0  0.085382  0  1.018895  0  0.101637  0  0.118058  0.084188  0  1.020746  0
H  H45  1  0.14201790  0.77493449  0.84326657  1  0  0.076175  0  0.946059  0  0  0.084796  0  1.019861  0  0  0.085395  0  1.018875  0  0.101638  0  0.11806  0.0842  0  1.020728  0
H  H46  1  0.35798119  0.22506499  0.34326657  1  0  0.076162  0  0.946128  0  0  0.084791  0  1.019908  0  0  0.08539  0  1.018922  0  0.101807  0  0.118056  0.084195  0  1.020774  0
H  H47  1  0.85798158  0.27493475  0.65673343  1  0  0.076174  0  0.946121  0  0  0.084794  0  1.019909  0  0  0.085394  0  1.018923  0  0.101808  0  0.118058  0.084198  0  1.020777  0
H  H48  1  0.57684911  0.52529745  0.25025408  1  0  0.083496  0  0.95398  0  0  0.093216  0  1.027042  0  0  0.094994  0  1.023528  0  0.123081  0  0.118811  0.091843  0  1.029599  0
H  H49  1  0.07684873  0.97470278  0.74974592  1  0  0.083517  0  0.953987  0  0  0.093227  0  1.027038  0  0  0.095005  0  1.023524  0  0.123079  0  0.118811  0.091853  0  1.029596  0
H  H50  1  0.42315166  0.02529770  0.24974592  1  0  0.083486  0  0.95401  0  0  0.093227  0  1.027039  0  0  0.095001  0  1.023533  0  0.123078  0  0.118813  0.091854  0  1.029596  0
H  H51  1  0.92315205  0.47470204  0.75025334  1  0  0.083485  0  0.954021  0  0  0.093219  0  1.027051  0  0  0.09498  0  1.02358  0  0.123087  0  0.118817  0.091845  0  1.029608  0
H  H52  1  0.37986526  0.43513052  0.22551667  1  0  0.089055  0  0.917839  0  0  0.101137  0  0.98375  0  0  0.101657  0  0.983314  0  0.115745  0  0.12076  0.100577  0  0.984211  0
H  H53  1  0.87986434  0.06486922  0.77448333  1  0  0.08908  0  0.917841  0  0  0.10114  0  0.983759  0  0  0.10166  0  0.983324  0  0.115736  0  0.120756  0.10058  0  0.984219  0
H  H54  1  0.62013552  0.93513027  0.27448333  1  0  0.08909  0  0.917859  0  0  0.101166  0  0.983763  0  0  0.101686  0  0.983326  0  0.115746  0  0.120775  0.100606  0  0.984224  0
H  H55  1  0.12013513  0.56486896  0.72551667  1  0  0.089067  0  0.917824  0  0  0.101144  0  0.983742  0  0  0.101666  0  0.983304  0  0.115746  0  0.120768  0.100583  0  0.984204  0
C  C56  1  0.26804539  0.58535435  0.07862265  1  0  -0.298332  0  3.592151  0  0  -0.335702  0  3.83129  0  0  -0.338771  0  3.841147  0  -0.313701  0  -0.08402  -0.333315  0  3.824312  0
C  C57  1  0.76804448  0.91464488  0.92137735  1  0  -0.298285  0  3.592114  0  0  -0.335682  0  3.831299  0  0  -0.338748  0  3.841154  0  -0.313686  0  -0.084023  -0.333293  0  3.824315  0
C  C58  1  0.73195538  0.08535561  0.42137735  1  0  -0.298323  0  3.592116  0  0  -0.335713  0  3.831291  0  0  -0.338787  0  3.841151  0  -0.313633  0  -0.084045  -0.333323  0  3.824309  0
C  C59  1  0.23195499  0.41464414  0.57862339  1  0  -0.298306  0  3.592134  0  0  -0.335685  0  3.831297  0  0  -0.338753  0  3.841156  0  -0.313635  0  -0.084027  -0.33329  0  3.824298  0
C  C60  1  0.53564672  0.58668154  0.93623757  1  0  -0.297746  0  3.624289  0  0  -0.33618  0  3.878459  0  0  -0.338757  0  3.88713  0  -0.268569  0  -0.080735  -0.334331  0  3.87283  0
C  C61  1  0.03564633  0.91332069  0.06376169  1  0  -0.297702  0  3.62422  0  0  -0.336148  0  3.878375  0  0  -0.338734  0  3.887051  0  -0.268556  0  -0.080715  -0.334301  0  3.872749  0
C  C62  1  0.46435276  0.08668280  0.56376317  1  0  -0.29777  0  3.624279  0  0  -0.336196  0  3.878451  0  0  -0.338793  0  3.887144  0  -0.268462  0  -0.080713  -0.334352  0  3.872831  0
C  C63  1  0.96435314  0.41331795  0.43623757  1  0  -0.297792  0  3.624315  0  0  -0.336218  0  3.878471  0  0  -0.338798  0  3.887143  0  -0.26857  0  -0.080749  -0.334374  0  3.872848  0
C  C64  1  0.46206879  0.35241529  0.04383620  1  0  -0.311136  0  3.589292  0  0  -0.349529  0  3.832404  0  0  -0.353285  0  3.842666  0  -0.357343  0  -0.092261  -0.346673  0  3.825414  0
C  C65  1  0.96206917  0.14758445  0.95616380  1  0  -0.311183  0  3.58924  0  0  -0.349577  0  3.832366  0  0  -0.353336  0  3.842629  0  -0.357325  0  -0.092264  -0.346722  0  3.825377  0
C  C66  1  0.53793199  0.85241803  0.45616305  1  0  -0.311125  0  3.589266  0  0  -0.349542  0  3.832422  0  0  -0.353297  0  3.842688  0  -0.357335  0  -0.092249  -0.346688  0  3.825432  0
C  C67  1  0.03793160  0.64758420  0.54383620  1  0  -0.311099  0  3.589267  0  0  -0.34954  0  3.832469  0  0  -0.353293  0  3.842729  0  -0.357324  0  -0.092253  -0.34667  0  3.825441  0
C  C68  1  0.71565205  0.49669678  0.07139587  1  0  0.061478  0  3.609579  0  0  -0.010339  0  3.867638  0  0  -0.001943  0  3.877618  0  0.58186  0  0.017162  -0.015912  0  3.860665  0
C  C69  1  0.21565166  0.00330296  0.92860413  1  0  0.061471  0  3.609556  0  0  -0.01036  0  3.867626  0  0  -0.001966  0  3.877609  0  0.581841  0  0.017165  -0.015931  0  3.860648  0
C  C70  1  0.28434742  0.99669752  0.42860413  1  0  0.061476  0  3.609558  0  0  -0.010346  0  3.867617  0  0  -0.001952  0  3.877602  0  0.581185  0  0.017135  -0.015919  0  3.860642  0
C  C71  1  0.78434781  0.50330271  0.57139513  1  0  0.061473  0  3.609455  0  0  -0.010358  0  3.86752  0  0  -0.001968  0  3.877506  0  0.581477  0  0.017183  -0.015929  0  3.860544  0
C  C72  1  0.54923369  0.69470048  0.09935406  1  0  0.055299  0  3.640919  0  0  -0.01886  0  3.907678  0  0  -0.010098  0  3.916779  0  0.545833  0  0.015238  -0.024696  0  3.901196  0
C  C73  1  0.04923330  0.80529874  0.90064594  1  0  0.05528  0  3.640945  0  0  -0.01891  0  3.907728  0  0  -0.010147  0  3.916826  0  0.545835  0  0.015203  -0.024746  0  3.901245  0
C  C74  1  0.45076578  0.19470074  0.40064594  1  0  0.05524  0  3.641035  0  0  -0.018909  0  3.907761  0  0  -0.010145  0  3.916858  0  0.545663  0  0.015217  -0.024745  0  3.901279  0
C  C75  1  0.95076617  0.30529900  0.59935406  1  0  0.055222  0  3.641037  0  0  -0.018919  0  3.907771  0  0  -0.010158  0  3.916872  0  0.545661  0  0.015219  -0.024757  0  3.901291  0
C  C76  1  0.48464882  0.49467897  0.19280508  1  0  0.043529  0  3.610528  0  0  -0.032829  0  3.870336  0  0  -0.02421  0  3.880493  0  0.482769  0  0.005985  -0.038495  0  3.863219  0
C  C77  1  0.98464791  0.00532078  0.80719418  1  0  0.043415  0  3.610541  0  0  -0.03288  0  3.870265  0  0  -0.024258  0  3.880412  0  0.482782  0  0.005949  -0.038546  0  3.863147  0
C  C78  1  0.51535195  0.99467971  0.30719418  1  0  0.043498  0  3.610532  0  0  -0.032853  0  3.870327  0  0  -0.024235  0  3.880482  0  0.482768  0  0.005978  -0.038518  0  3.863208  0
C  C79  1  0.01535157  0.50532052  0.69280508  1  0  0.043529  0  3.610567  0  0  -0.032816  0  3.870353  0  0  -0.024198  0  3.880491  0  0.482761  0  0.005972  -0.038483  0  3.863239  0
N  N80  1  0.58773661  0.27991122  0.79470955  1  0  0.678132  0  4.165989  0  0  0.707496  0  4.46135  0  0  0.735563  0  4.468455  0  0.808302  0  0.086519  0.688683  0  4.455899  0
N  N81  1  0.08773622  0.22008853  0.20529045  1  0  0.677388  0  4.16627  0  0  0.707489  0  4.461247  0  0  0.735556  0  4.468349  0  0.808299  0  0.086509  0.688675  0  4.455797  0
N  N82  1  0.41226287  0.77991096  0.70529045  1  0  0.678036  0  4.166049  0  0  0.707383  0  4.461418  0  0  0.735452  0  4.468524  0  0.808327  0  0.086457  0.688571  0  4.455966  0
N  N83  1  0.91226325  0.72008927  0.29470955  1  0  0.678034  0  4.166024  0  0  0.707316  0  4.461472  0  0  0.735383  0  4.46858  0  0.808288  0  0.08645  0.688505  0  4.456018  0
N  N84  1  0.40878432  0.61826989  0.14999704  1  0  -0.203801  0  3.24898  0  0  -0.101881  0  3.490684  0  0  -0.121599  0  3.511373  0  -0.946228  0  -0.340871  -0.08815  0  3.475987  0
N  N85  1  0.90878341  0.88172934  0.85000222  1  0  -0.203781  0  3.248949  0  0  -0.10186  0  3.49063  0  0  -0.121578  0  3.511319  0  -0.946227  0  -0.34082  -0.088129  0  3.475938  0
N  N86  1  0.59121645  0.11827015  0.35000222  1  0  -0.203776  0  3.248965  0  0  -0.101866  0  3.490668  0  0  -0.121583  0  3.511357  0  -0.946231  0  -0.340866  -0.088136  0  3.475974  0
N  N87  1  0.09121607  0.38172960  0.64999778  1  0  -0.203808  0  3.249013  0  0  -0.101896  0  3.490711  0  0  -0.12161  0  3.5114  0  -0.946221  0  -0.340876  -0.088165  0  3.47602  0
N  N88  1  0.64253896  0.61642723  0.02494852  1  0  -0.211772  0  3.20994  0  0  -0.13804  0  3.464715  0  0  -0.154193  0  3.484842  0  -0.99718  0  -0.331817  -0.126774  0  3.450598  0
N  N89  1  0.14253858  0.88357299  0.97505148  1  0  -0.211789  0  3.209865  0  0  -0.138066  0  3.464655  0  0  -0.154216  0  3.484783  0  -0.997175  0  -0.331833  -0.126799  0  3.450539  0
N  N90  1  0.35746051  0.11642749  0.47505148  1  0  -0.211755  0  3.209912  0  0  -0.138044  0  3.464704  0  0  -0.154192  0  3.484835  0  -0.996526  0  -0.331826  -0.126778  0  3.450592  0
N  N91  1  0.85746090  0.38357225  0.52494852  1  0  -0.211711  0  3.209823  0  0  -0.138007  0  3.464647  0  0  -0.154158  0  3.484779  0  -0.996811  0  -0.331812  -0.126738  0  3.450526  0
N  N92  1  0.58070551  0.41156237  0.11981585  1  0  -0.206914  0  3.253318  0  0  -0.102444  0  3.495821  0  0  -0.122989  0  3.517732  0  -0.949271  0  -0.339465  -0.087989  0  3.479905  0
N  N93  1  0.08070512  0.08843737  0.88018415  1  0  -0.2069  0  3.253256  0  0  -0.102442  0  3.495758  0  0  -0.122986  0  3.517669  0  -0.949273  0  -0.339474  -0.087986  0  3.479841  0
N  N94  1  0.41929527  0.91156311  0.38018415  1  0  -0.20697  0  3.253243  0  0  -0.102496  0  3.495757  0  0  -0.123039  0  3.517664  0  -0.949271  0  -0.33949  -0.088039  0  3.479841  0
N  N95  1  0.91929436  0.58843711  0.61981585  1  0  -0.206998  0  3.253346  0  0  -0.10252  0  3.495857  0  0  -0.123061  0  3.517763  0  -0.949255  0  -0.339491  -0.088068  0  3.479953  0
O  O96  1  0.21464407  0.44678698  0.90124520  1  0  -0.721908  0  1.910488  0  0  -0.646546  0  2.166425  0  0  -0.67143  0  2.15205  0  -1.425771  0  -0.371228  -0.628706  0  2.175467  0
O  O97  1  0.71464575  0.05321276  0.09875480  1  0  -0.721916  0  1.910509  0  0  -0.646574  0  2.166452  0  0  -0.671457  0  2.152076  0  -1.42581  0  -0.371252  -0.628734  0  2.175495  0
O  O98  1  0.78535541  0.94678673  0.59875480  1  0  -0.721868  0  1.9105  0  0  -0.646499  0  2.166431  0  0  -0.671383  0  2.152056  0  -1.425779  0  -0.371208  -0.628659  0  2.175473  0
O  O99  1  0.28535502  0.55321150  0.40124669  1  0  -0.721895  0  1.910553  0  0  -0.646551  0  2.166508  0  0  -0.671436  0  2.152133  0  -1.425747  0  -0.371213  -0.628713  0  2.175553  0
O  O100  1  0.49774888  0.33629182  0.72757004  1  0  -0.478362  0  1.813639  0  0  -0.458655  0  2.049763  0  0  -0.475653  0  2.041724  0  -0.555801  0  -0.195346  -0.446574  0  2.055098  0
O  O101  1  0.99774926  0.16370793  0.27242996  1  0  -0.478036  0  1.813631  0  0  -0.458653  0  2.049727  0  0  -0.475647  0  2.041687  0  -0.555805  0  -0.195343  -0.44657  0  2.055062  0
O  O102  1  0.50225060  0.83629156  0.77242996  1  0  -0.478339  0  1.813655  0  0  -0.458626  0  2.049779  0  0  -0.475624  0  2.04174  0  -0.555803  0  -0.19534  -0.446544  0  2.055112  0
O  O103  1  0.00225151  0.66370767  0.22757004  1  0  -0.47834  0  1.813628  0  0  -0.4586  0  2.049767  0  0  -0.475597  0  2.041729  0  -0.555807  0  -0.195336  -0.446518  0  2.0551  0
O  O104  1  0.52450992  0.18347567  0.84388954  1  0  -0.473405  0  1.766275  0  0  -0.457902  0  1.992017  0  0  -0.473444  0  1.984436  0  -0.549452  0  -0.191452  -0.447024  0  1.997201  0
O  O105  1  0.02450953  0.31652408  0.15611046  1  0  -0.473062  0  1.76625  0  0  -0.457877  0  1.991962  0  0  -0.473419  0  1.98438  0  -0.549451  0  -0.191436  -0.446999  0  1.997146  0
O  O106  1  0.47548956  0.68347541  0.65611046  1  0  -0.473346  0  1.766254  0  0  -0.457836  0  1.991995  0  0  -0.473376  0  1.984413  0  -0.549455  0  -0.191396  -0.446963  0  1.997183  0
O  O107  1  0.97548994  0.81652482  0.34388954  1  0  -0.47335  0  1.766261  0  0  -0.457818  0  1.992012  0  0  -0.473358  0  1.98443  0  -0.549417  0  -0.191402  -0.446946  0  1.997199  0
O  O108  1  0.74000966  0.32208907  0.81270463  1  0  -0.479347  0  1.786868  0  0  -0.462122  0  2.008461  0  0  -0.47752  0  2.001305  0  -0.567359  0  -0.191116  -0.451359  0  2.013394  0
O  O109  1  0.24000927  0.17791067  0.18729537  1  0  -0.479098  0  1.786932  0  0  -0.462145  0  2.008447  0  0  -0.477548  0  2.001291  0  -0.567355  0  -0.191131  -0.451385  0  2.013385  0
O  O110  1  0.25999111  0.82208881  0.68729537  1  0  -0.479343  0  1.786916  0  0  -0.4621  0  2.008503  0  0  -0.477506  0  2.001344  0  -0.567381  0  -0.19112  -0.451335  0  2.013428  0
O  O111  1  0.75999150  0.67791142  0.31270463  1  0  -0.479329  0  1.78691  0  0  -0.462069  0  2.008528  0  0  -0.477466  0  2.001357  0  -0.567374  0  -0.191106  -0.451306  0  2.013455  0
