# generated using pymatgen
data_Cu3H12C20(NO2)6
_symmetry_space_group_name_H-M   'P 1'
_cell_length_a   9.49106665
_cell_length_b   12.31543455
_cell_length_c   12.32367072
_cell_angle_alpha   63.38120074
_cell_angle_beta   86.43429979
_cell_angle_gamma   86.50137738
_symmetry_Int_Tables_number   1
_chemical_formula_structural   Cu3H12C20(NO2)6
_chemical_formula_sum   'Cu6 H24 C40 N12 O24'
_cell_volume   1284.41172880
_cell_formula_units_Z   2
loop_
 _symmetry_equiv_pos_site_id
 _symmetry_equiv_pos_as_xyz
  1  'x, y, z'
loop_
 _atom_site_type_symbol
 _atom_site_label
 _atom_site_symmetry_multiplicity
 _atom_site_fract_x
 _atom_site_fract_y
 _atom_site_fract_z
 _atom_site_occupancy
 _atom_site_pbe_bader_charge
 _atom_site_pbe_bader_spin_density
 _atom_site_pbe_cm5_charge
 _atom_site_pbe_ddec_charge
 _atom_site_pbe_ddec_spin_density
 _atom_site_pbe_ddec_sum_bond_order
 _atom_site_pbe_magmom
Cu  Cu0  1  0.25004123  0.40243721  0.59769343  1  1.184156  0.562232  0.708066  1.001545  0.695162  2.085664  0.561
Cu  Cu1  1  0.75004311  0.59754999  0.40229167  1  1.184541  0.562242  0.70803  1.001763  0.695175  2.085417  0.561
Cu  Cu2  1  0.00000254  0.49999516  0.99999085  1  1.065142  0.464295  0.71586  0.759284  0.579476  2.224725  0.463
Cu  Cu3  1  0.50000368  0.99998981  0.49999773  1  1.062828  0.46157  0.714317  0.758415  0.575821  2.221646  0.46
Cu  Cu4  1  0.99999662  0.99998746  0.00001281  1  1.004793  -0.376473  0.72868  0.702375  -0.49564  2.336506  -0.378
Cu  Cu5  1  0.49998548  0.00001897  0.99998899  1  1.005005  -0.374094  0.728458  0.702262  -0.492492  2.340298  -0.376
H  H6  1  0.76912224  0.32504752  0.12305169  1  0.14509  1.8e-05  0.112976  0.125801  1.5e-05  1.043888  0.0
H  H7  1  0.73084358  0.87690823  0.67473081  1  0.14594  1.5e-05  0.113138  0.126162  1.1e-05  1.043935  0.0
H  H8  1  0.23088290  0.67494456  0.87694585  1  0.14502  1.8e-05  0.112937  0.125737  1.5e-05  1.043913  0.0
H  H9  1  0.26915802  0.12309201  0.32526572  1  0.146013  1.5e-05  0.113085  0.126059  1.1e-05  1.044009  0.0
H  H10  1  0.64259736  0.22890296  0.32945558  1  0.184479  9.8e-05  0.130821  0.132859  4.8e-05  1.019262  0.0
H  H11  1  0.85746771  0.67059960  0.77099391  1  0.184719  0.000101  0.130842  0.132924  5e-05  1.019551  0.0
H  H12  1  0.35740007  0.77109543  0.67053961  1  0.184518  9.7e-05  0.130848  0.132852  4.8e-05  1.019298  0.0
H  H13  1  0.14253493  0.32940065  0.22900174  1  0.184722  0.000101  0.130849  0.132936  5e-05  1.019564  0.0
H  H14  1  0.93272321  0.93874608  0.45449231  1  0.152231  -4.3e-05  0.137513  0.130401  -1.1e-05  0.965251  0.0
H  H15  1  0.56737221  0.54547772  0.06144099  1  0.151399  -4.4e-05  0.13764  0.130308  -1.2e-05  0.965778  0.0
H  H16  1  0.06727257  0.06124957  0.54551800  1  0.152228  -4.4e-05  0.137525  0.130403  -1.1e-05  0.965326  0.0
H  H17  1  0.43262183  0.45452519  0.93855319  1  0.151339  -4.4e-05  0.13764  0.130316  -1.2e-05  0.965711  0.0
H  H18  1  0.07479302  0.02405063  0.25722990  1  0.1397  0.00031  0.122408  0.137054  0.000136  0.969886  0.0
H  H19  1  0.42525748  0.74260204  0.97608084  1  0.139111  0.000319  0.122529  0.137005  0.000141  0.970307  0.0
H  H20  1  0.92520643  0.97593413  0.74278182  1  0.139677  0.00031  0.122353  0.137015  0.000136  0.969829  0.0
H  H21  1  0.57473990  0.25739908  0.02391718  1  0.138799  0.000319  0.122519  0.137  0.000141  0.970377  0.0
H  H22  1  0.04012575  0.47529784  0.41387272  1  0.638213  -3.9e-05  0.296866  0.393672  0.000104  0.931803  0.0
H  H23  1  0.45982833  0.58565988  0.52490445  1  0.639773  -2.5e-05  0.297814  0.394663  0.000127  0.930291  0.0
H  H24  1  0.95993542  0.52464475  0.58630508  1  0.638005  -4.1e-05  0.296832  0.393618  0.0001  0.931993  0.0
H  H25  1  0.54022741  0.41450170  0.47503496  1  0.639642  -2.1e-05  0.297783  0.394775  0.000132  0.93017  0.0
H  H26  1  0.20021459  0.45814769  0.38111358  1  0.598863  -0.000358  0.310108  0.39591  -0.000147  0.900129  0.0
H  H27  1  0.29973862  0.61871914  0.54175210  1  0.598207  -0.000384  0.311029  0.396899  -0.00015  0.898462  0.0
H  H28  1  0.79982136  0.54188648  0.61892160  1  0.596652  -0.000356  0.309958  0.39588  -0.000148  0.900564  0.0
H  H29  1  0.70029341  0.38130316  0.45827485  1  0.59799  -0.000387  0.311046  0.396989  -0.00015  0.898129  0.0
C  C30  1  0.08878884  0.48341347  0.76793792  1  1.586589  -0.001478  0.212696  0.575088  0.000244  4.216259  -0.002
C  C31  1  0.41137582  0.23199366  0.51686328  1  1.587576  -0.001517  0.212429  0.574932  0.000219  4.215775  -0.002
C  C32  1  0.91124797  0.51656066  0.23206978  1  1.587273  -0.001475  0.212586  0.574989  0.000247  4.216411  -0.002
C  C33  1  0.58865808  0.76800680  0.48311330  1  1.587772  -0.001519  0.212657  0.575515  0.000215  4.214874  -0.002
C  C34  1  0.06601098  0.35991065  0.86575981  1  0.445655  0.000542  0.080109  0.016763  0.000267  3.960509  0.0
C  C35  1  0.43421275  0.13418530  0.64028869  1  0.444842  0.000575  0.079888  0.016297  0.000292  3.960177  0.0
C  C36  1  0.93398109  0.64006496  0.13423619  1  0.44545  0.00054  0.080106  0.016719  0.000265  3.960409  0.0
C  C37  1  0.56576137  0.86580563  0.35969099  1  0.444729  0.000578  0.08006  0.016366  0.000294  3.959807  0.0
C  C38  1  0.06618810  0.24472392  0.87038450  1  0.391152  0.001812  0.071725  -0.000591  0.001282  3.99098  0.002
C  C39  1  0.43422818  0.12961062  0.75538332  1  0.393539  0.001845  0.071707  -0.000321  0.001311  3.991002  0.002
C  C40  1  0.93377570  0.75524876  0.12961781  1  0.390938  0.001804  0.071589  -0.000629  0.001275  3.991062  0.001
C  C41  1  0.56571258  0.87039188  0.24459242  1  0.393212  0.001856  0.071728  -0.00041  0.001319  3.990665  0.002
C  C42  1  0.08550263  0.19270435  0.78321618  1  1.587066  0.000913  0.208289  0.570775  0.000187  4.206019  0.001
C  C43  1  0.41510052  0.21683726  0.80740990  1  1.587423  0.000857  0.207365  0.570765  9e-05  4.207163  0.001
C  C44  1  0.91441992  0.80726346  0.21677625  1  1.586636  0.000909  0.208267  0.570445  0.000198  4.20642  0.001
C  C45  1  0.58481127  0.78316684  0.19254986  1  1.588998  0.000859  0.207036  0.570349  7.8e-05  4.207996  0.001
C  C46  1  0.99678232  0.22970820  0.04971409  1  0.97494  -0.001583  0.217108  0.309824  -0.001058  3.980868  -0.002
C  C47  1  0.50327113  0.95018332  0.77030593  1  0.977063  -0.001604  0.21713  0.310082  -0.001079  3.980859  -0.002
C  C48  1  0.00321565  0.77028019  0.95028636  1  0.975417  -0.001587  0.217162  0.309981  -0.001059  3.98099  -0.002
C  C49  1  0.49672503  0.04981960  0.22968892  1  0.9776  -0.001599  0.21708  0.309952  -0.001077  3.980853  -0.002
C  C50  1  0.93191401  0.18133099  0.17233986  1  0.032057  0.009842  0.007576  0.036559  0.006261  3.98056  0.006
C  C51  1  0.56812763  0.82755014  0.81864332  1  0.033116  0.010137  0.007606  0.03689  0.00645  3.980623  0.006
C  C52  1  0.06809039  0.81865745  0.82766423  1  0.031505  0.00984  0.007595  0.036419  0.006259  3.980772  0.006
C  C53  1  0.43188226  0.17245561  0.18135590  1  0.033389  0.010138  0.007576  0.036836  0.00645  3.980705  0.006
C  C54  1  0.81016473  0.24012394  0.19430661  1  0.044645  -0.002074  -0.069127  -0.105181  -0.001317  3.951464  -0.002
C  C55  1  0.68985182  0.80564315  0.75974716  1  0.044509  -0.002137  -0.069052  -0.10551  -0.001358  3.951862  -0.002
C  C56  1  0.18983947  0.75986813  0.80569586  1  0.044508  -0.002075  -0.069121  -0.105101  -0.001318  3.951421  -0.002
C  C57  1  0.31015277  0.19436257  0.24025159  1  0.044545  -0.002137  -0.068947  -0.105273  -0.001357  3.951769  -0.002
C  C58  1  0.73928665  0.19044000  0.30594460  1  0.350068  0.008039  0.036998  -0.044993  0.00531  3.841015  0.005
C  C59  1  0.76078339  0.69406418  0.80949997  1  0.34854  0.008216  0.037085  -0.044994  0.005429  3.841609  0.005
C  C60  1  0.26071717  0.80955844  0.69405341  1  0.350058  0.008041  0.037024  -0.044939  0.005312  3.840948  0.005
C  C61  1  0.23922043  0.30593699  0.19050249  1  0.348474  0.008213  0.037091  -0.045  0.005427  3.841582  0.005
C  C62  1  0.90593404  0.02498597  0.37822549  1  0.4359  0.009104  0.04271  -0.035443  0.006385  3.844841  0.006
C  C63  1  0.59415793  0.62172425  0.97513693  1  0.435317  0.009332  0.042975  -0.03477  0.006546  3.844743  0.007
C  C64  1  0.09406277  0.97500696  0.62177867  1  0.436171  0.009102  0.042744  -0.035522  0.006384  3.844963  0.006
C  C65  1  0.40584875  0.37828057  0.02485885  1  0.435409  0.009333  0.042912  -0.03475  0.006547  3.844632  0.007
C  C66  1  0.98062789  0.07335686  0.26819776  1  -0.042524  -0.002361  -0.063758  -0.096179  -0.001574  3.962596  -0.002
C  C67  1  0.51942662  0.73168070  0.92672872  1  -0.041811  -0.002411  -0.063668  -0.095853  -0.001604  3.962294  -0.002
C  C68  1  0.01936919  0.92663061  0.73180803  1  -0.042355  -0.002361  -0.063709  -0.095992  -0.001574  3.962453  -0.002
C  C69  1  0.48058115  0.26832413  0.07326861  1  -0.041872  -0.002411  -0.063643  -0.09596  -0.001603  3.96249  -0.002
N  N70  1  0.02447364  0.16404510  0.98651525  1  -1.158794  -0.047365  -0.37092  -0.362832  -0.032625  3.547672  -0.041
N  N71  1  0.47578418  0.01345103  0.83593747  1  -1.162886  -0.047227  -0.370682  -0.362853  -0.032541  3.547447  -0.041
N  N72  1  0.97550234  0.83593858  0.01348543  1  -1.158806  -0.047353  -0.370873  -0.362847  -0.032617  3.547545  -0.041
N  N73  1  0.52417753  0.98656072  0.16404661  1  -1.164096  -0.047237  -0.370637  -0.362788  -0.032547  3.547349  -0.041
N  N74  1  0.02196016  0.34842165  0.97898237  1  -1.160211  0.047009  -0.360594  -0.343734  0.030989  3.526068  0.039
N  N75  1  0.47806038  0.02089830  0.65169828  1  -1.1592  0.046626  -0.360373  -0.344113  0.030745  3.524516  0.039
N  N76  1  0.97804649  0.65155952  0.02101429  1  -1.159621  0.04701  -0.360548  -0.343679  0.030989  3.525785  0.039
N  N77  1  0.52194560  0.97909469  0.34829150  1  -1.159128  0.046629  -0.360594  -0.344285  0.030747  3.524614  0.039
N  N78  1  0.78657521  0.08310536  0.39583550  1  -0.67161  0.00024  -0.116723  0.322886  -0.00049  3.96829  -0.003
N  N79  1  0.71356026  0.60419873  0.91697819  1  -0.670749  0.00028  -0.116825  0.322595  -0.000483  3.967942  -0.003
N  N80  1  0.21342449  0.91689305  0.60416684  1  -0.671852  0.000244  -0.116696  0.322916  -0.000487  3.968245  -0.003
N  N81  1  0.28644666  0.39580337  0.08302285  1  -0.670843  0.000277  -0.116799  0.322607  -0.000485  3.967844  -0.003
O  O82  1  0.13401154  0.50137098  0.66010760  1  -1.135222  0.083224  -0.328693  -0.581115  0.052895  2.398582  0.075
O  O83  1  0.36628402  0.33989219  0.49885623  1  -1.135648  0.083236  -0.328384  -0.580974  0.052895  2.397891  0.075
O  O84  1  0.86607352  0.49861533  0.33990626  1  -1.135934  0.083264  -0.328466  -0.581151  0.052914  2.399175  0.075
O  O85  1  0.63380215  0.66012412  0.50112461  1  -1.135278  0.083168  -0.328609  -0.58123  0.05286  2.397358  0.074
O  O86  1  0.05512984  0.57132246  0.79145632  1  -1.140862  0.027049  -0.302063  -0.533819  0.017007  2.272309  0.025
O  O87  1  0.44488494  0.20838621  0.42899700  1  -1.139643  0.027754  -0.302133  -0.533662  0.017457  2.271569  0.026
O  O88  1  0.94490056  0.42865344  0.20855180  1  -1.141304  0.027044  -0.302077  -0.533719  0.017005  2.272077  0.025
O  O89  1  0.55514887  0.79161699  0.57098079  1  -1.139664  0.027751  -0.302227  -0.533904  0.017455  2.271573  0.026
O  O90  1  0.12194859  0.25065566  0.67294895  1  -1.132138  0.021064  -0.309238  -0.539926  0.013515  2.302642  0.02
O  O91  1  0.37930620  0.32718811  0.74950226  1  -1.134848  0.017424  -0.309774  -0.541782  0.011193  2.299432  0.017
O  O92  1  0.87785845  0.74931220  0.32703112  1  -1.132006  0.021882  -0.309153  -0.539828  0.014034  2.303647  0.021
O  O93  1  0.62053767  0.67281729  0.25044894  1  -1.135973  0.016623  -0.309755  -0.54189  0.010682  2.299058  0.016
O  O94  1  0.05955238  0.07792314  0.82985844  1  -1.09123  -0.065468  -0.320835  -0.513566  -0.0427  2.370063  -0.06
O  O95  1  0.44057722  0.16999155  0.92223594  1  -1.093053  -0.06518  -0.321539  -0.514253  -0.042488  2.371095  -0.06
O  O96  1  0.94043366  0.92202062  0.17018307  1  -1.090338  -0.065197  -0.320713  -0.513114  -0.04253  2.370159  -0.06
O  O97  1  0.55938568  0.83006566  0.07770169  1  -1.093368  -0.065459  -0.321519  -0.514061  -0.042661  2.371661  -0.06
O  O98  1  0.71580137  0.03374131  0.50169025  1  -0.608017  0.065549  -0.24097  -0.475857  0.042346  2.094178  0.059
O  O99  1  0.78437757  0.49836839  0.96641714  1  -0.607965  0.067166  -0.240811  -0.47553  0.043377  2.094054  0.061
O  O100  1  0.28419804  0.96626346  0.49831087  1  -0.607938  0.06555  -0.241016  -0.475856  0.042347  2.093995  0.059
O  O101  1  0.21562298  0.50163457  0.03358472  1  -0.607972  0.067175  -0.240857  -0.475612  0.043383  2.094106  0.061
O  O102  1  0.13686308  0.49451003  0.42223785  1  -1.19314  0.020056  -0.581725  -0.746669  0.012944  2.041937  0.018
O  O103  1  0.36306055  0.57709959  0.50588344  1  -1.191252  0.02266  -0.580873  -0.745251  0.014618  2.044948  0.02
O  O104  1  0.86321521  0.50540267  0.57793933  1  -1.191366  0.019617  -0.581994  -0.74726  0.01266  2.041844  0.018
O  O105  1  0.63701394  0.42307301  0.49401902  1  -1.190369  0.02311  -0.580369  -0.744864  0.014904  2.045646  0.021
