# generated using pymatgen
data_Cu2H7(C3N)4
_symmetry_space_group_name_H-M   'P 1'
_cell_length_a   20.98491819
_cell_length_b   21.72193135
_cell_length_c   21.91323382
_cell_angle_alpha   91.75724811
_cell_angle_beta   90.81485057
_cell_angle_gamma   93.80010700
_symmetry_Int_Tables_number   1
_chemical_formula_structural   Cu2H7(C3N)4
_chemical_formula_sum   'Cu12 H42 C72 N24'
_cell_volume   9960.80195344
_cell_formula_units_Z   6
loop_
 _symmetry_equiv_pos_site_id
 _symmetry_equiv_pos_as_xyz
  1  'x, y, z'
loop_
 _atom_site_type_symbol
 _atom_site_label
 _atom_site_symmetry_multiplicity
 _atom_site_fract_x
 _atom_site_fract_y
 _atom_site_fract_z
 _atom_site_occupancy
 _atom_site_pbe_bader_charge
 _atom_site_pbe_bader_spin_density
 _atom_site_pbe_cm5_charge
 _atom_site_pbe_ddec_charge
 _atom_site_pbe_ddec_spin_density
 _atom_site_pbe_ddec_sum_bond_order
 _atom_site_pbe_magmom
Cu  Cu0  1  0.17941310  0.20826259  0.90722727  1  0.540273  0  0.481581  0.201998  0  2.124788  0
Cu  Cu1  1  0.11318857  0.25258379  0.79072894  1  0.542593  0  0.485514  0.208427  0  2.124505  0
Cu  Cu2  1  0.22847035  0.16539333  0.77905696  1  0.546557  0  0.487165  0.213322  0  2.111011  0
Cu  Cu3  1  0.24284317  0.78333008  0.13547866  1  0.536518  0  0.488336  0.210954  0  2.132674  0
Cu  Cu4  1  0.14122023  0.77322857  0.24297706  1  0.543018  0  0.483337  0.212143  0  2.0898  0
Cu  Cu5  1  0.22313481  0.89816927  0.21637233  1  0.540783  0  0.48284  0.202116  0  2.135316  0
Cu  Cu6  1  0.75905025  0.19961955  0.12574773  1  0.541782  0  0.48659  0.211539  0  2.119566  0
Cu  Cu7  1  0.86105813  0.20782192  0.23330913  1  0.54276  0  0.483328  0.206395  0  2.117194  0
Cu  Cu8  1  0.80870759  0.07888333  0.17598796  1  0.542743  0  0.482518  0.202481  0  2.126042  0
Cu  Cu9  1  0.78537355  0.75925620  0.86074051  1  0.537771  0  0.483361  0.204541  0  2.136551  0
Cu  Cu10  1  0.91267140  0.81133545  0.80796497  1  0.538475  0  0.480389  0.202225  0  2.118701  0
Cu  Cu11  1  0.78065578  0.85226253  0.75386110  1  0.54732  0  0.486126  0.216008  0  2.096482  0
H  H12  1  0.09096096  0.26717666  0.00871206  1  0.09387  0  0.120037  0.112547  0  0.989348  0
H  H13  1  0.03687245  0.36484340  0.84865647  1  0.078012  0  0.120984  0.114381  0  0.988178  0
H  H14  1  0.35223018  0.09627100  0.81819078  1  0.093217  0  0.119784  0.112033  0  0.990366  0
H  H15  1  0.26178405  0.12770021  0.99176114  1  0.083289  0  0.118549  0.109605  0  0.994279  0
H  H16  1  0.02237507  0.19341175  0.68831780  1  0.089422  0  0.119501  0.113594  0  0.988071  0
H  H17  1  0.18468072  0.08265209  0.66585452  1  0.089673  0  0.119002  0.113345  0  0.988802  0
H  H18  1  0.17705023  0.69079146  0.03991748  1  0.094634  0  0.11862  0.113002  0  0.989893  0
H  H19  1  0.04515626  0.66695912  0.18856493  1  0.069199  0  0.119377  0.113544  0  0.990455  0
H  H20  1  0.29370373  0.00091463  0.13411456  1  0.118027  0  0.118845  0.111018  0  0.991283  0
H  H21  1  0.35226691  0.83292065  0.04644332  1  0.097739  0  0.120133  0.112432  0  0.989382  0
H  H22  1  0.05881369  0.81757035  0.35577884  1  0.07605  0  0.119219  0.113725  0  0.989244  0
H  H23  1  0.15538387  0.98924261  0.30251725  1  0.065348  0  0.11896  0.11241  0  0.988883  0
H  H24  1  0.79855967  0.31643927  0.05468139  1  0.119761  0  0.119259  0.113487  0  0.989087  0
H  H25  1  0.94795882  0.32343724  0.19308751  1  0.0859  0  0.118953  0.113515  0  0.989346  0
H  H26  1  0.74208363  0.98000068  0.07874492  1  0.100771  0  0.119429  0.111215  0  0.992271  0
H  H27  1  0.64412549  0.14363449  0.03836948  1  0.093277  0  0.120867  0.113534  0  0.989219  0
H  H28  1  0.92682570  0.16402087  0.35708588  1  0.071569  0  0.119903  0.113294  0  0.989536  0
H  H29  1  0.88561298  0.99056608  0.25726974  1  0.089301  0  0.120263  0.112158  0  0.990783  0
H  H30  1  0.83152967  0.64281362  0.93286610  1  0.100253  0  0.120285  0.113383  0  0.989395  0
H  H31  1  0.01145593  0.73815931  0.88692872  1  0.113179  0  0.119782  0.112157  0  0.990265  0
H  H32  1  0.65754774  0.92008199  0.78375779  1  0.107072  0  0.119753  0.114105  0  0.987815  0
H  H33  1  0.67985944  0.81125687  0.94374341  1  0.076847  0  0.118794  0.112438  0  0.989967  0
H  H34  1  0.00714953  0.90825482  0.74247535  1  0.119033  0  0.119691  0.112691  0  0.990071  0
H  H35  1  0.83218976  0.92909958  0.64046024  1  0.095915  0  0.120069  0.113662  0  0.988945  0
H  H36  1  0.93757681  0.93708351  0.55008326  1  0.05734  0  0.099626  0.106684  0  1.003888  0
H  H37  1  0.07086856  0.09540213  0.53549264  1  0.063367  0  0.099312  0.107823  0  1.004523  0
H  H38  1  0.93151836  0.07189974  0.45239285  1  0.064046  0  0.099362  0.107143  0  1.004429  0
H  H39  1  0.07409204  0.93950970  0.47025350  1  0.065507  0  0.100226  0.109212  0  1.002641  0
H  H40  1  0.01222056  0.03478466  0.71239917  1  0.05284  0  0.098141  0.103667  0  1.010702  0
H  H41  1  0.00555458  0.98375049  0.29204967  1  0.020084  0  0.097057  0.101029  0  1.014873  0
H  H42  1  0.90656600  0.46696398  0.09482262  1  0.039717  0  0.099411  0.108066  0  1.005594  0
H  H43  1  0.03939792  0.45688391  0.94725179  1  0.076307  0  0.099939  0.106689  0  1.003138  0
H  H44  1  0.05096280  0.54095019  0.09373897  1  0.055972  0  0.099209  0.107167  0  1.005735  0
H  H45  1  0.91905779  0.54803134  0.94214650  1  0.057132  0  0.098707  0.105906  0  1.005773  0
H  H46  1  0.96536840  0.29063152  0.03058954  1  0.01201  0  0.097637  0.102787  0  1.010413  0
H  H47  1  0.02833222  0.71295785  0.00668449  1  0.070174  0  0.097326  0.10183  0  1.012436  0
H  H48  1  0.45600047  0.92289288  0.02589731  1  0.037537  0  0.098979  0.105772  0  1.004451  0
H  H49  1  0.44946496  0.06574265  0.89451179  1  0.074535  0  0.098183  0.10582  0  1.005322  0
H  H50  1  0.52185950  0.91038604  0.88113015  1  0.066622  0  0.098739  0.108114  0  1.004392  0
H  H51  1  0.54939810  0.05517032  0.01958970  1  0.040367  0  0.099532  0.105436  0  1.006223  0
H  H52  1  0.28658482  0.02181876  0.00711736  1  0.04051  0  0.096297  0.099265  0  1.01902  0
H  H53  1  0.70878408  0.95516838  0.96052598  1  0.034708  0  0.097482  0.101745  0  1.012581  0
C  C54  1  0.08391569  0.28441390  0.96329630  1  0.388478  0  0.004273  -0.057026  0  3.965737  0
C  C55  1  0.04675950  0.33209436  0.94475505  1  -0.006365  0  -0.035075  -0.031025  0  4.080525  0
C  C56  1  0.05726130  0.33532677  0.88181603  1  0.454146  0  0.003673  -0.056886  0  3.96619  0
C  C57  1  0.32370367  0.11101019  0.85621850  1  0.370281  0  0.004509  -0.052773  0  3.958151  0
C  C58  1  0.32543991  0.09407251  0.91748436  1  0.027231  0  -0.036509  -0.034906  0  4.081534  0
C  C59  1  0.27659236  0.12614029  0.94451117  1  0.404086  0  0.003238  -0.056443  0  3.970839  0
C  C60  1  0.06842621  0.17344059  0.68935069  1  0.419553  0  0.00089  -0.060635  0  3.968178  0
C  C61  1  0.08718062  0.11952773  0.65993987  1  0.008502  0  -0.035729  -0.029961  0  4.068022  0
C  C62  1  0.15134814  0.11710532  0.67761124  1  0.384722  0  0.000131  -0.061573  0  3.970919  0
C  C63  1  0.15183365  0.69139070  0.08282693  1  0.429742  0  0.000236  -0.064063  0  3.974553  0
C  C64  1  0.09208768  0.66325646  0.09694321  1  -0.0149  0  -0.035895  -0.028582  0  4.075927  0
C  C65  1  0.08494004  0.67850894  0.15895770  1  0.415325  0  0.000523  -0.062285  0  3.96847  0
C  C66  1  0.30167172  0.95383026  0.11966136  1  0.352353  0  0.003612  -0.057744  0  3.969693  0
C  C67  1  0.33672542  0.93233706  0.07023567  1  0.025835  0  -0.035717  -0.030397  0  4.084581  0
C  C68  1  0.33287717  0.86807864  0.07569923  1  0.424269  0  0.003842  -0.054349  0  3.965967  0
C  C69  1  0.08961071  0.85398580  0.33668372  1  0.394605  0  0.001135  -0.061294  0  3.966058  0
C  C70  1  0.08936169  0.91807228  0.34567450  1  -0.009488  0  -0.036553  -0.030448  0  4.07769  0
C  C71  1  0.13856925  0.94152873  0.30870064  1  0.441431  0  0.002076  -0.061001  0  3.978182  0
C  C72  1  0.82867923  0.31115680  0.09459657  1  0.356245  0  0.000647  -0.060422  0  3.974832  0
C  C73  1  0.88917871  0.33933674  0.10902412  1  0.032284  0  -0.036285  -0.031511  0  4.0706  0
C  C74  1  0.90501623  0.31454289  0.16512013  1  0.38966  0  0.00024  -0.062634  0  3.96965  0
C  C75  1  0.72527343  0.02599996  0.07560014  1  0.364628  0  0.005003  -0.054275  0  3.96408  0
C  C76  1  0.67586165  0.04650054  0.03914280  1  0.063699  0  -0.035281  -0.032371  0  4.078736  0
C  C77  1  0.67421279  0.10925507  0.05595345  1  0.382346  0  0.004262  -0.055354  0  3.96276  0
C  C78  1  0.91027620  0.12659630  0.32561724  1  0.410104  0  0.00379  -0.0577  0  3.962285  0
C  C79  1  0.92230365  0.06389096  0.32623028  1  0.023194  0  -0.036075  -0.03144  0  4.083269  0
C  C80  1  0.89027958  0.03827697  0.27383623  1  0.396035  0  0.003932  -0.056421  0  3.974181  0
C  C81  1  0.87012911  0.67223457  0.91472577  1  0.36532  0  0.003653  -0.056125  0  3.964582  0
C  C82  1  0.93606883  0.67278006  0.92653555  1  0.059951  0  -0.036549  -0.034132  0  4.080126  0
C  C83  1  0.96191758  0.72180633  0.89237888  1  0.352552  0  0.003944  -0.056882  0  3.964651  0
C  C84  1  0.66928267  0.88666654  0.81727835  1  0.363292  0  0.000921  -0.057774  0  3.96902  0
C  C85  1  0.65025662  0.88217722  0.87809238  1  0.041443  0  -0.036992  -0.034313  0  4.067771  0
C  C86  1  0.68149028  0.83156150  0.89907719  1  0.386913  0  0.001213  -0.06064  0  3.972196  0
C  C87  1  0.95859458  0.90671555  0.72445242  1  0.341965  0  0.003769  -0.057635  0  3.969201  0
C  C88  1  0.93441401  0.93720298  0.67447205  1  0.042818  0  -0.03576  -0.032231  0  4.078041  0
C  C89  1  0.86968144  0.91637017  0.67131847  1  0.410666  0  0.002456  -0.05878  0  3.967931  0
C  C90  1  0.96716038  0.97498521  0.57188793  1  -0.010299  0  -0.094539  -0.194957  0  3.945104  0
C  C91  1  0.00333898  0.01577113  0.53574901  1  -0.043439  0  -0.00903  0.083831  0  4.029836  0
C  C92  1  0.04247885  0.06377933  0.56366301  1  0.009119  0  -0.095845  -0.200051  0  3.954292  0
C  C93  1  0.04597805  0.07087228  0.62739475  1  -0.029894  0  -0.008507  0.105055  0  4.049988  0
C  C94  1  0.00970428  0.02921525  0.66276186  1  -0.072227  0  -0.096207  -0.1985  0  3.944609  0
C  C95  1  0.97009100  0.98102469  0.63583612  1  -0.022666  0  -0.009554  0.10362  0  4.062244  0
C  C96  1  0.00258521  0.00656083  0.46811061  1  -0.044895  0  -0.008807  0.08459  0  4.029228  0
C  C97  1  0.96321076  0.03994800  0.43114909  1  -0.016774  0  -0.095652  -0.197485  0  3.944781  0
C  C98  1  0.96297510  0.03126719  0.36740970  1  -0.006043  0  -0.010848  0.101893  0  4.072446  0
C  C99  1  0.00395580  0.98959346  0.34162362  1  0.002806  0  -0.096685  -0.198335  0  3.953881  0
C  C100  1  0.04421665  0.95635740  0.37772451  1  0.005724  0  -0.009558  0.104151  0  4.066194  0
C  C101  1  0.04257270  0.96444385  0.44132286  1  -0.044446  0  -0.096212  -0.200234  0  3.951317  0
C  C102  1  0.93421432  0.43956438  0.06361775  1  0.045787  0  -0.096439  -0.201191  0  3.953851  0
C  C103  1  0.97309381  0.46894662  0.02016325  1  0.000149  0  -0.008859  0.084961  0  4.024983  0
C  C104  1  0.00823970  0.43356198  0.98000301  1  -0.058756  0  -0.094113  -0.193395  0  3.941144  0
C  C105  1  0.00696437  0.36917106  0.98379728  1  -0.059795  0  -0.009778  0.102773  0  4.073385  0
C  C106  1  0.96807488  0.34078554  0.02770237  1  0.065833  0  -0.09601  -0.197277  0  3.950703  0
C  C107  1  0.93100130  0.37508774  0.06717396  1  -0.060428  0  -0.008433  0.104142  0  4.05118  0
C  C108  1  0.98318179  0.53739714  0.01841208  1  -0.017827  0  -0.009276  0.082984  0  4.03195  0
C  C109  1  0.02786247  0.56743238  0.05928612  1  -0.048193  0  -0.095612  -0.197629  0  3.952797  0
C  C110  1  0.04527845  0.63045675  0.05464331  1  -0.044155  0  -0.009239  0.103697  0  4.060385  0
C  C111  1  0.01624298  0.66347352  0.00918411  1  -0.041077  0  -0.096295  -0.195928  0  3.942637  0
C  C112  1  0.96933452  0.63502070  0.96947433  1  -0.00169  0  -0.009489  0.102498  0  4.065008  0
C  C113  1  0.95368392  0.57141446  0.97410763  1  -0.035624  0  -0.096615  -0.199087  0  3.946698  0
C  C114  1  0.42928827  0.95712596  0.00295943  1  -0.031869  0  -0.097158  -0.197382  0  3.94947  0
C  C115  1  0.45906000  0.99216935  0.95747848  1  -0.027015  0  -0.00911  0.083103  0  4.030134  0
C  C116  1  0.42590258  0.03758495  0.92909815  1  -0.024238  0  -0.09842  -0.201496  0  3.943359  0
C  C117  1  0.36339568  0.04883613  0.94684387  1  -0.023283  0  -0.009913  0.10343  0  4.068162  0
C  C118  1  0.33548391  0.01443462  0.99389326  1  0.008923  0  -0.098609  -0.198457  0  3.946093  0
C  C119  1  0.36763547  0.96833854  0.02217990  1  -0.039226  0  -0.010396  0.102119  0  4.085128  0
C  C120  1  0.52870128  0.98477910  0.94964190  1  -0.039872  0  -0.009337  0.080921  0  4.02523  0
C  C121  1  0.55345870  0.93894021  0.91207965  1  -0.024843  0  -0.097422  -0.201726  0  3.951945  0
C  C122  1  0.61864386  0.92819058  0.91608073  1  0.015423  0  -0.008316  0.104526  0  4.046729  0
C  C123  1  0.65812275  0.96346801  0.95808086  1  -0.013103  0  -0.096912  -0.196459  0  3.944197  0
C  C124  1  0.63458391  0.01035799  0.99497878  1  -0.017432  0  -0.010666  0.101692  0  4.077893  0
C  C125  1  0.56958314  0.02075732  0.98959570  1  -0.045433  0  -0.094863  -0.192104  0  3.944277  0
N  N126  1  0.09751803  0.29238293  0.86417469  1  -0.789974  0  -0.340174  -0.147077  0  3.75658  0
N  N127  1  0.11457730  0.26122932  0.91500801  1  -0.773759  0  -0.341065  -0.140185  0  3.769433  0
N  N128  1  0.24772564  0.15918547  0.90246135  1  -0.771598  0  -0.339875  -0.13802  0  3.775798  0
N  N129  1  0.27672593  0.14966108  0.84737146  1  -0.765169  0  -0.340355  -0.149213  0  3.745107  0
N  N130  1  0.16940491  0.16567167  0.71562427  1  -0.775687  0  -0.342924  -0.151778  0  3.742757  0
N  N131  1  0.11775400  0.20085599  0.72271239  1  -0.768985  0  -0.342145  -0.14658  0  3.757104  0
N  N132  1  0.13650840  0.71398066  0.18016807  1  -0.767358  0  -0.339025  -0.147617  0  3.74659  0
N  N133  1  0.17829237  0.72146112  0.13286534  1  -0.772422  0  -0.341843  -0.144738  0  3.773971  0
N  N134  1  0.29728569  0.85230568  0.12442542  1  -0.765524  0  -0.344447  -0.152396  0  3.746215  0
N  N135  1  0.27844325  0.90572084  0.15199490  1  -0.780474  0  -0.341177  -0.139914  0  3.776157  0
N  N136  1  0.16597583  0.89484460  0.27943325  1  -0.768932  0  -0.34281  -0.141654  0  3.783176  0
N  N137  1  0.13543257  0.84027522  0.29641121  1  -0.767183  0  -0.338808  -0.149274  0  3.744605  0
N  N138  1  0.85749167  0.27393384  0.18255516  1  -0.786368  0  -0.341178  -0.14687  0  3.754597  0
N  N139  1  0.80993291  0.27180202  0.13857869  1  -0.762664  0  -0.343998  -0.150193  0  3.744136  0
N  N140  1  0.71950670  0.12495125  0.09899795  1  -0.782107  0  -0.339977  -0.14552  0  3.759864  0
N  N141  1  0.75093708  0.07307042  0.11149427  1  -0.7721  0  -0.340094  -0.14106  0  3.770232  0
N  N142  1  0.86145809  0.08246612  0.24417007  1  -0.780812  0  -0.341486  -0.141331  0  3.783849  0
N  N143  1  0.87423385  0.13757795  0.27596210  1  -0.765804  0  -0.338931  -0.144269  0  3.751238  0
N  N144  1  0.91478303  0.74845016  0.86263705  1  -0.784551  0  -0.339404  -0.139836  0  3.770123  0
N  N145  1  0.85763827  0.71800883  0.87687677  1  -0.754016  0  -0.340843  -0.145248  0  3.758211  0
N  N146  1  0.71703603  0.80801023  0.85419146  1  -0.771281  0  -0.342159  -0.144504  0  3.766379  0
N  N147  1  0.70989979  0.84255418  0.80323929  1  -0.773863  0  -0.342596  -0.154444  0  3.725962  0
N  N148  1  0.85627170  0.87665925  0.71640006  1  -0.781071  0  -0.338002  -0.147014  0  3.754282  0
N  N149  1  0.91177922  0.87031175  0.74909755  1  -0.771167  0  -0.339818  -0.141107  0  3.769909  0
