# generated using pymatgen
data_FeH10(C2O)4
_symmetry_space_group_name_H-M   'P 1'
_cell_length_a   5.17145818
_cell_length_b   6.56207971
_cell_length_c   13.13884345
_cell_angle_alpha   99.75565954
_cell_angle_beta   99.14460557
_cell_angle_gamma   103.38198267
_symmetry_Int_Tables_number   1
_chemical_formula_structural   FeH10(C2O)4
_chemical_formula_sum   'Fe2 H20 C16 O8'
_cell_volume   418.26626315
_cell_formula_units_Z   2
loop_
 _symmetry_equiv_pos_site_id
 _symmetry_equiv_pos_as_xyz
  1  'x, y, z'
loop_
 _atom_site_type_symbol
 _atom_site_label
 _atom_site_symmetry_multiplicity
 _atom_site_fract_x
 _atom_site_fract_y
 _atom_site_fract_z
 _atom_site_occupancy
 _atom_site_hle17_ddec_charge
 _atom_site_hle17_ddec_spin_density
 _atom_site_hle17_ddec_sum_bond_order
 _atom_site_hle17_magmom
 _atom_site_hse06_10hf_ddec_charge
 _atom_site_hse06_10hf_ddec_spin_density
 _atom_site_hse06_10hf_ddec_sum_bond_order
 _atom_site_hse06_10hf_magmom
 _atom_site_hse06_ddec_charge
 _atom_site_hse06_ddec_spin_density
 _atom_site_hse06_ddec_sum_bond_order
 _atom_site_hse06_magmom
 _atom_site_pbe_cm5_charge
 _atom_site_pbe_ddec_charge
 _atom_site_pbe_ddec_spin_density
 _atom_site_pbe_ddec_sum_bond_order
 _atom_site_pbe_magmom
Fe  Fe0  1  0.26398307  0.11216324  0.04385827  1  1.039433  -3.898772  2.084368  -3.651  0.911014  -3.842729  2.55075  -3.629  0.999552  -3.874434  2.448491  -3.691  0.664189  0.867629  -3.856462  2.626438  -3.603
Fe  Fe1  1  0.73630323  0.88782039  0.95615731  1  1.039081  -3.898849  2.085415  -3.651  0.911057  -3.842688  2.551555  -3.629  0.999636  -3.874492  2.449214  -3.691  0.664316  0.867654  -3.856552  2.627454  -3.603
H  H2  1  0.41530997  0.52626587  0.82081713  1  0.099434  -0.000736  0.937421  0.0  0.107535  0.000488  1.007596  -0.001  0.110357  0.000784  1.005257  0.0  0.109856  0.106986  -0.001309  1.001362  -0.001
H  H3  1  0.58468393  0.47379584  0.17914789  1  0.099483  -0.000738  0.93719  0.0  0.107669  0.000485  1.007372  -0.001  0.110508  0.00078  1.005037  0.0  0.109877  0.107119  -0.001311  1.00111  -0.001
H  H4  1  0.02530841  0.65171576  0.65667611  1  0.061385  -4e-06  0.941336  0.0  0.078528  -1.1e-05  1.008069  0.0  0.079182  -3e-06  1.008586  0.0  0.087594  0.078696  -4e-06  1.00763  0.0
H  H5  1  0.97466584  0.34843412  0.34331179  1  0.060879  -6e-06  0.941495  0.0  0.078057  -1.1e-05  1.00819  0.0  0.078732  -3e-06  1.00865  0.0  0.087414  0.078163  -4e-06  1.007819  0.0
H  H6  1  0.36242342  0.80476184  0.71622922  1  0.083187  6e-05  0.945104  0.0  0.099224  0.000167  1.007906  0.0  0.100956  0.00023  1.007343  0.0  0.094437  0.098073  5.6e-05  1.008418  0.0
H  H7  1  0.63759669  0.19522842  0.28376875  1  0.083268  5.9e-05  0.945435  0.0  0.099254  0.000168  1.00821  0.0  0.10097  0.000232  1.007666  0.0  0.094408  0.098085  5.7e-05  1.00873  0.0
H  H8  1  0.34038726  0.57962965  0.53892724  1  0.056265  -1.1e-05  0.96105  0.0  0.073818  -4.8e-05  1.026512  0.0  0.074309  -3.3e-05  1.027056  0.0  0.086064  0.073614  -2.5e-05  1.025951  0.0
H  H9  1  0.65967979  0.42035444  0.46107302  1  0.056214  -1.3e-05  0.961078  0.0  0.073804  -4.8e-05  1.02646  0.0  0.074299  -3.4e-05  1.027011  0.0  0.086018  0.073598  -2.5e-05  1.025904  0.0
H  H10  1  0.54930818  0.51570603  0.64203940  1  0.061318  9e-06  0.945756  0.0  0.080087  1e-05  1.010252  0.0  0.080996  1.9e-05  1.010158  0.0  0.087536  0.078744  -1.2e-05  1.011068  0.0
H  H11  1  0.45054004  0.48423446  0.35800358  1  0.061328  7e-06  0.945729  0.0  0.079941  1.1e-05  1.010379  0.0  0.080894  1.9e-05  1.010238  0.0  0.087331  0.078605  -1.2e-05  1.011182  0.0
H  H12  1  0.26140943  0.17919347  0.52334187  1  0.059755  1.4e-05  0.936943  0.0  0.081077  -4.9e-05  0.993603  0.0  0.081734  -3e-05  0.994004  0.0  0.087889  0.080242  7e-06  0.993809  0.0
H  H13  1  0.73860642  0.82080660  0.47667492  1  0.059687  1.6e-05  0.936703  0.0  0.080935  -4.9e-05  0.993465  0.0  0.081593  -3.1e-05  0.993857  0.0  0.087843  0.080098  7e-06  0.993682  0.0
H  H14  1  0.96495153  0.26475791  0.53193348  1  0.055639  -1.6e-05  0.94451  0.0  0.07785  -5e-06  1.002823  0.0  0.077987  -7e-06  1.004142  0.0  0.086629  0.07758  -2.4e-05  1.00212  0.0
H  H15  1  0.03496623  0.73516366  0.46797963  1  0.05582  -1.5e-05  0.944698  0.0  0.077935  -5e-06  1.003061  0.0  0.078073  -7e-06  1.004389  0.0  0.086698  0.077702  -2.4e-05  1.002318  0.0
H  H16  1  0.33642065  0.16309757  0.71258970  1  0.078801  -4.7e-05  0.932101  0.0  0.095946  -2e-06  0.994545  0.0  0.097369  3.6e-05  0.99419  0.0  0.093564  0.094801  -7.1e-05  0.994746  0.0
H  H17  1  0.66352338  0.83714239  0.28744952  1  0.079056  -4.7e-05  0.931494  0.0  0.096119  -2e-06  0.993966  0.0  0.097576  3.7e-05  0.993564  0.0  0.093638  0.094953  -7e-05  0.994199  0.0
H  H18  1  0.00372790  0.01052928  0.64839696  1  0.066705  -3.7e-05  0.949391  0.0  0.082654  -3.6e-05  1.014415  0.0  0.083571  -1.2e-05  1.014736  0.0  0.089868  0.082153  -3.7e-05  1.014178  0.0
H  H19  1  0.99630159  0.98944683  0.35161714  1  0.066899  -3.8e-05  0.949229  0.0  0.082759  -3.5e-05  1.01428  0.0  0.08367  -1.2e-05  1.014615  0.0  0.089951  0.082257  -3.7e-05  1.014034  0.0
H  H20  1  0.81782628  0.31233894  0.71835357  1  0.079104  -0.000186  0.922871  0.0  0.090893  -0.000295  0.983898  -0.001  0.092866  -0.000171  0.982843  0.0  0.101481  0.08894  -0.000465  0.984186  0.0
H  H21  1  0.18207380  0.68769717  0.28164332  1  0.079161  -0.000188  0.923228  0.0  0.090872  -0.000296  0.984231  -0.001  0.092839  -0.000171  0.983189  0.0  0.101503  0.088915  -0.000465  0.98452  0.0
C  C22  1  0.21153226  0.53744819  0.78751833  1  -0.146545  -0.004022  3.643408  -0.007  -0.157573  -0.002711  3.883725  -0.005  -0.163682  -0.001626  3.896463  -0.003  -0.090521  -0.150328  -0.005002  3.875414  -0.008
C  C23  1  0.78844232  0.46253661  0.21244298  1  -0.145961  -0.004019  3.642929  -0.007  -0.157725  -0.002711  3.883638  -0.005  -0.163877  -0.001619  3.89641  -0.003  -0.090506  -0.150409  -0.00501  3.875201  -0.008
C  C24  1  0.22944198  0.64063563  0.69086162  1  -0.110747  0.001514  3.639046  0.001  -0.1543  -0.000403  3.896708  -0.001  -0.155198  -0.000199  3.910585  0.0  -0.159657  -0.156135  0.001199  3.890164  0.001
C  C25  1  0.77045032  0.35938914  0.30912702  1  -0.110462  0.001524  3.63905  0.001  -0.153794  -0.000403  3.896467  -0.001  -0.15467  -0.000199  3.910336  0.0  -0.159383  -0.155604  0.001195  3.889932  0.001
C  C26  1  0.33682155  0.50792993  0.60867527  1  -0.106986  -4.3e-05  3.69598  0.0  -0.147629  -0.000194  3.960353  0.0  -0.14837  -0.000132  3.974879  0.0  -0.168071  -0.146853  -9e-05  3.95121  0.0
C  C27  1  0.66307774  0.49205013  0.39131694  1  -0.107122  -3.8e-05  3.696281  0.0  -0.147647  -0.000194  3.960427  0.0  -0.148424  -0.000133  3.974952  0.0  -0.167968  -0.146872  -9e-05  3.951274  0.0
C  C28  1  0.16812102  0.27400174  0.57683831  1  -0.102296  8.5e-05  3.693244  0.0  -0.14283  -0.00018  3.957922  0.0  -0.143811  -0.000124  3.973277  0.0  -0.166556  -0.14249  0.000126  3.948456  0.0
C  C29  1  0.83180445  0.72598146  0.42313973  1  -0.102317  7e-05  3.693741  0.0  -0.142798  -0.000181  3.958279  0.0  -0.143783  -0.000125  3.973655  0.0  -0.166609  -0.142482  0.000125  3.948823  0.0
C  C30  1  0.13730133  0.17452427  0.67291445  1  -0.116964  0.001988  3.643874  0.002  -0.159216  -0.000553  3.90088  -0.001  -0.160041  -0.000366  3.914561  -0.001  -0.159883  -0.160039  0.001459  3.893051  0.001
C  C31  1  0.86255537  0.82549252  0.32708739  1  -0.117536  0.001994  3.643291  0.002  -0.159596  -0.000555  3.900063  -0.001  -0.160442  -0.000367  3.913733  -0.001  -0.160096  -0.160427  0.001458  3.892265  0.001
C  C32  1  0.02385729  0.30913549  0.75417616  1  -0.120233  -0.003529  3.632453  -0.007  -0.131402  -0.002742  3.87174  -0.004  -0.136269  -0.001759  3.883875  -0.003  -0.0853  -0.124581  -0.003228  3.861873  -0.006
C  C33  1  0.97601155  0.69082358  0.24581021  1  -0.120145  -0.003534  3.632274  -0.007  -0.130926  -0.002745  3.871353  -0.004  -0.135793  -0.001759  3.883501  -0.003  -0.085175  -0.124125  -0.003234  3.861492  -0.006
C  C34  1  0.12596233  0.68403209  0.86968303  1  0.705066  0.025719  3.733643  0.017  0.66526  -0.005945  4.024159  -0.009  0.703157  -0.004331  4.01862  -0.007  0.236112  0.626069  0.014951  4.034269  0.008
C  C35  1  0.87417692  0.31594452  0.13033310  1  0.704095  0.025616  3.735717  0.017  0.665154  -0.005935  4.024959  -0.009  0.70306  -0.004323  4.019401  -0.007  0.236106  0.625934  0.014908  4.035127  0.008
C  C36  1  0.00283541  0.20136212  0.84702302  1  0.678981  0.036983  3.789183  0.025  0.643808  -0.00743  4.069577  -0.012  0.680841  -0.005713  4.065582  -0.01  0.222728  0.606031  0.022981  4.089299  0.014
C  C37  1  0.99715268  0.79861367  0.15298022  1  0.678914  0.0369  3.789236  0.025  0.643389  -0.007438  4.070092  -0.012  0.680397  -0.00573  4.066089  -0.01  0.22257  0.605613  0.022953  4.089808  0.014
O  O38  1  0.31317495  0.83582355  0.93541490  1  -0.634495  -0.044297  2.179901  -0.072  -0.57685  -0.038798  2.479316  -0.061  -0.6224  -0.032185  2.464662  -0.051  -0.304353  -0.534102  -0.051629  2.473623  -0.079
O  O39  1  0.68709573  0.16410575  0.06460970  1  -0.634399  -0.044284  2.181  -0.072  -0.57723  -0.038786  2.480478  -0.061  -0.622783  -0.032188  2.465807  -0.051  -0.304698  -0.534333  -0.051621  2.474554  -0.079
O  O40  1  0.87620439  0.66344729  0.86823645  1  -0.584774  -0.03749  2.078188  -0.067  -0.533245  -0.030135  2.339023  -0.046  -0.569378  -0.024591  2.324596  -0.036  -0.293693  -0.499951  -0.041911  2.346088  -0.07
O  O41  1  0.12394622  0.33654285  0.13183475  1  -0.584219  -0.037407  2.078415  -0.067  -0.532808  -0.030085  2.338668  -0.046  -0.568963  -0.024535  2.324326  -0.036  -0.293333  -0.49954  -0.041835  2.345721  -0.07
O  O42  1  0.21286104  0.24878517  0.92089694  1  -0.59281  -0.039276  2.098319  -0.076  -0.530399  -0.034786  2.341401  -0.05  -0.570458  -0.028026  2.327584  -0.038  -0.307704  -0.511479  -0.04088  2.373147  -0.073
O  O43  1  0.78719004  0.75111541  0.07908175  1  -0.592682  -0.039316  2.098566  -0.076  -0.530186  -0.034796  2.341746  -0.05  -0.570181  -0.028068  2.327871  -0.038  -0.307705  -0.511298  -0.040917  2.373557  -0.073
O  O44  1  0.78245557  0.06271669  0.84484381  1  -0.609095  -0.037805  2.08232  -0.071  -0.554231  -0.033657  2.333246  -0.047  -0.593319  -0.027293  2.319707  -0.036  -0.312232  -0.533598  -0.039561  2.361951  -0.069
O  O45  1  0.21752846  0.93727033  0.15516392  1  -0.60917  -0.037799  2.082508  -0.071  -0.554257  -0.033661  2.333719  -0.047  -0.593283  -0.02731  2.320129  -0.036  -0.312177  -0.533604  -0.039568  2.36239  -0.069
