# generated using pymatgen
data_CuH24C25N4O5
_symmetry_space_group_name_H-M   'P 1'
_cell_length_a   10.19395966
_cell_length_b   10.44956552
_cell_length_c   14.59822477
_cell_angle_alpha   86.87725506
_cell_angle_beta   73.07017937
_cell_angle_gamma   86.86959360
_symmetry_Int_Tables_number   1
_chemical_formula_structural   CuH24C25N4O5
_chemical_formula_sum   'Cu2 H48 C50 N8 O10'
_cell_volume   1484.21524263
_cell_formula_units_Z   2
loop_
 _symmetry_equiv_pos_site_id
 _symmetry_equiv_pos_as_xyz
  1  'x, y, z'
loop_
 _atom_site_type_symbol
 _atom_site_label
 _atom_site_symmetry_multiplicity
 _atom_site_fract_x
 _atom_site_fract_y
 _atom_site_fract_z
 _atom_site_occupancy
 _atom_site_pbe_bader_charge
 _atom_site_pbe_bader_spin_density
 _atom_site_pbe_cm5_charge
 _atom_site_pbe_ddec_charge
 _atom_site_pbe_ddec_spin_density
 _atom_site_pbe_ddec_sum_bond_order
 _atom_site_pbe_magmom
Cu  Cu0  1  0.94635515  0.10046828  0.96878827  1  1.087624  0.55257  0.672217  0.840902  0.708791  2.288981  0.55
Cu  Cu1  1  0.05364619  0.89953191  0.03121367  1  1.088107  -0.552564  0.672198  0.840921  -0.708785  2.288855  -0.55
H  H2  1  0.88808382  0.33303156  0.88681479  1  0.591606  -8.5e-05  0.306439  0.381538  -5.1e-05  0.915227  0.0
H  H3  1  0.11191865  0.66696666  0.11319041  1  0.591564  8.5e-05  0.306428  0.38153  5.1e-05  0.915279  0.0
H  H4  1  0.78449874  0.31906251  0.99118173  1  0.636888  -2.7e-05  0.277584  0.33556  -3e-05  1.033826  0.0
H  H5  1  0.21550165  0.68093668  0.00882387  1  0.636981  2.7e-05  0.277589  0.335573  3e-05  1.033827  0.0
H  H6  1  0.59284632  0.17712289  0.10643249  1  0.10766  0.000176  0.11433  0.132614  0.000106  1.00865  0.0
H  H7  1  0.40715209  0.82287440  0.89357359  1  0.107717  -0.000175  0.114324  0.132611  -0.000106  1.008685  0.0
H  H8  1  0.96742948  0.38759143  0.08015535  1  0.093951  2.9e-05  0.100976  0.1512  2.7e-05  1.019618  0.0
H  H9  1  0.03257567  0.61241642  0.91984348  1  0.093872  -2.9e-05  0.100968  0.15122  -2.7e-05  1.019648  0.0
H  H10  1  0.94717686  0.46236630  0.19009834  1  0.059938  7e-06  0.095832  0.134167  4e-06  0.983961  0.0
H  H11  1  0.05282926  0.53764251  0.80989889  1  0.059871  -7e-06  0.095819  0.134136  -4e-06  0.983948  0.0
H  H12  1  0.96722805  0.55887125  0.08291821  1  0.052516  -2.3e-05  0.094269  0.126074  -2.5e-05  1.040576  0.0
H  H13  1  0.03276992  0.44113571  0.91708010  1  0.052626  2.3e-05  0.094245  0.126033  2.5e-05  1.040747  0.0
H  H14  1  0.42032845  0.05007311  0.06203102  1  0.109322  -0.000269  0.109745  0.112236  -0.000246  1.017404  0.0
H  H15  1  0.57967187  0.94992614  0.93796912  1  0.109219  0.000269  0.109714  0.112183  0.000247  1.017466  0.0
H  H16  1  0.17307975  0.10167691  0.65666752  1  0.097875  0.000373  0.106614  0.111147  0.000292  0.991925  0.0
H  H17  1  0.82692798  0.89831932  0.34334076  1  0.097752  -0.000373  0.106628  0.111137  -0.000292  0.991967  0.0
H  H18  1  0.35134743  0.52305420  0.08413390  1  0.051316  -0.000158  0.106126  0.11068  -8.2e-05  1.033587  0.0
H  H19  1  0.64865796  0.47694599  0.91586309  1  0.051318  0.000158  0.106127  0.110693  8.2e-05  1.033527  0.0
H  H20  1  0.27793101  0.74058872  0.77653157  1  0.135377  -0.000222  0.101929  0.100751  -0.000233  1.070144  0.0
H  H21  1  0.72208004  0.25939704  0.22346611  1  0.135434  0.000222  0.101954  0.10082  0.000233  1.070115  0.0
H  H22  1  0.31268908  0.03541423  0.49329941  1  0.100712  -0.000206  0.106404  0.112846  -0.000109  1.021565  0.0
H  H23  1  0.68730642  0.96457829  0.50670744  1  0.100752  0.000206  0.106368  0.112779  0.000109  1.021601  0.0
H  H24  1  0.18435159  0.39549785  0.03727077  1  0.088973  0.000277  0.103033  0.102376  0.000247  1.048344  0.0
H  H25  1  0.81565182  0.60450137  0.96272940  1  0.088913  -0.000277  0.103028  0.102365  -0.000247  1.048481  0.0
H  H26  1  0.40690953  0.67001090  0.61603325  1  0.056792  0.000174  0.100098  0.105522  9e-05  1.041013  0.0
H  H27  1  0.59309213  0.32997784  0.38396217  1  0.056928  -0.000174  0.10011  0.105498  -9e-05  1.041087  0.0
H  H28  1  0.78282920  0.61571701  0.29584945  1  0.038335  -6e-06  0.094058  0.084851  -2e-06  0.991956  0.0
H  H29  1  0.21717375  0.38429376  0.70414631  1  0.038248  6e-06  0.094031  0.084847  2e-06  0.991956  0.0
H  H30  1  0.77816539  0.72747696  0.20294579  1  0.076749  -2.7e-05  0.10179  0.116303  -1.7e-05  0.976614  0.0
H  H31  1  0.22183255  0.27253003  0.79704978  1  0.076885  2.7e-05  0.101794  0.116336  1.7e-05  0.976703  0.0
H  H32  1  0.43193919  0.95465677  0.20384685  1  0.056255  -3e-06  0.100034  0.145698  3e-06  0.996067  0.0
H  H33  1  0.56805370  0.04535018  0.79615663  1  0.056384  3e-06  0.100054  0.145692  -3e-06  0.995993  0.0
H  H34  1  0.50714315  0.80708173  0.15303150  1  0.045959  -3e-06  0.091751  0.13108  -4e-06  1.014846  0.0
H  H35  1  0.49284848  0.19293008  0.84696659  1  0.045923  3e-06  0.09178  0.131112  4e-06  1.014864  0.0
H  H36  1  0.61369938  0.92997724  0.16316092  1  0.048143  -2.5e-05  0.09344  0.138252  -1.7e-05  1.00182  0.0
H  H37  1  0.38629132  0.07003264  0.83683949  1  0.047857  2.5e-05  0.093414  0.138223  1.7e-05  1.001832  0.0
H  H38  1  0.63881684  0.70737223  0.54426547  1  0.062155  4e-06  0.101708  0.143983  2e-06  0.985076  0.0
H  H39  1  0.36118246  0.29262516  0.45572946  1  0.062099  -4e-06  0.101747  0.144025  -2e-06  0.984999  0.0
H  H40  1  0.72582925  0.61320841  0.44519510  1  0.023982  3e-06  0.098308  0.137433  2e-06  0.997962  0.0
H  H41  1  0.27417193  0.38679283  0.55479656  1  0.023812  -3e-06  0.098285  0.137407  -2e-06  0.997967  0.0
H  H42  1  0.56633322  0.56594159  0.52249818  1  0.064001  6e-06  0.091736  0.124965  3e-06  1.023044  0.0
H  H43  1  0.43366915  0.43405579  0.47749542  1  0.064065  -6e-06  0.091729  0.124989  -3e-06  1.02298  0.0
H  H44  1  0.35581069  0.63746879  0.21586855  1  0.069443  1.3e-05  0.100573  0.147305  7e-06  0.988927  0.0
H  H45  1  0.64419266  0.36253048  0.78412684  1  0.069177  -1.3e-05  0.100575  0.147316  -7e-06  0.988844  0.0
H  H46  1  0.40061852  0.59564685  0.32219356  1  0.091307  -4e-06  0.096049  0.139179  -2e-06  1.019681  0.0
H  H47  1  0.59937757  0.40435533  0.67780461  1  0.091275  4e-06  0.096044  0.139164  2e-06  1.019681  0.0
H  H48  1  0.33551500  0.47812786  0.26459951  1  0.058077  4e-06  0.096003  0.136088  2e-06  0.996435  0.0
H  H49  1  0.66448522  0.52187333  0.73539783  1  0.058057  -4e-06  0.095994  0.136059  -2e-06  0.996466  0.0
C  C50  1  0.21926828  0.92605656  0.72738969  1  -0.009938  -0.00051  -0.023892  -0.045336  -0.000358  3.974897  0.0
C  C51  1  0.78074051  0.07393684  0.27261299  1  -0.067066  0.000542  -0.023914  -0.045129  0.000356  3.974848  0.0
C  C52  1  0.13977022  0.96222589  0.82615086  1  1.544522  -0.000626  0.210285  0.567524  -0.000657  4.182271  -0.001
C  C53  1  0.86023876  0.03776269  0.17385399  1  1.544631  0.000629  0.21024  0.567298  0.000659  4.182588  0.001
C  C54  1  0.18549248  0.13769128  0.02618328  1  1.528491  -0.000155  0.212753  0.56884  -0.000228  4.17671  0.0
C  C55  1  0.81450772  0.86231180  0.97381743  1  1.528423  0.000156  0.212751  0.568876  0.000229  4.176663  0.0
C  C56  1  0.50199737  0.22392020  0.09247600  1  0.02421  0.00054  -0.082385  -0.151735  0.000395  3.935606  0.0
C  C57  1  0.49800086  0.77608095  0.90752725  1  0.024195  -0.00054  -0.08237  -0.151721  -0.000396  3.935605  0.0
C  C58  1  0.77035219  0.47796502  0.13914604  1  0.472219  8.5e-05  0.099336  0.201354  5e-05  4.048337  0.0
C  C59  1  0.22965114  0.52203612  0.86085340  1  0.472309  -8.5e-05  0.099384  0.201492  -5e-05  4.048274  0.0
C  C60  1  0.47888833  0.35672988  0.10158927  1  0.259246  0.000147  0.10104  0.153873  9.7e-05  4.019812  0.0
C  C61  1  0.52111410  0.64326838  0.89841251  1  0.259232  -0.000147  0.10105  0.153892  -9.7e-05  4.019849  0.0
C  C62  1  0.29051431  0.21476831  0.04886295  1  -0.040957  -0.000483  -0.016636  -0.031405  -0.000302  3.965043  0.0
C  C63  1  0.70948900  0.78523378  0.95113783  1  -0.040958  0.00048  -0.016623  -0.031386  0.0003  3.965106  0.0
C  C64  1  0.92155971  0.47134391  0.12173213  1  -0.121663  3e-05  -0.235199  -0.43132  6e-06  3.952831  0.0
C  C65  1  0.07844343  0.52866205  0.87826581  1  -0.121551  -3e-05  -0.235144  -0.431288  -6e-06  3.95301  0.0
C  C66  1  0.40692136  0.15374550  0.06696065  1  -0.035529  0.001024  -0.076152  -0.074372  0.000622  3.95797  0.001
C  C67  1  0.59308214  0.84625178  0.93304162  1  -0.035324  -0.001023  -0.076133  -0.074353  -0.000622  3.958205  -0.001
C  C68  1  0.22711335  0.00835917  0.64698141  1  -0.069791  -0.001282  -0.077514  -0.066279  -0.000773  3.972765  -0.001
C  C69  1  0.77289045  0.99163135  0.35302583  1  -0.012691  0.001248  -0.07757  -0.066494  0.000773  3.972635  0.001
C  C70  1  0.36505352  0.41919976  0.08124162  1  0.033559  -0.000694  -0.094053  -0.176441  -0.000493  4.00644  -0.001
C  C71  1  0.63494775  0.58080141  0.91875688  1  0.033585  0.000694  -0.094074  -0.176443  0.000493  4.006422  0.001
C  C72  1  0.28671445  0.80515879  0.71430809  1  -0.14292  0.000896  -0.087883  -0.073726  0.000544  3.979822  0.001
C  C73  1  0.71329347  0.19482889  0.28569222  1  -0.142662  -0.000896  -0.087913  -0.073872  -0.000544  3.980012  -0.001
C  C74  1  0.60033111  0.73559682  0.32317522  1  0.061726  -8.1e-05  -0.03651  -0.11749  -4.7e-05  4.010984  0.0
C  C75  1  0.39966486  0.26440824  0.67682220  1  0.061983  8.1e-05  -0.0365  -0.117508  4.7e-05  4.011106  0.0
C  C76  1  0.67253412  0.55839754  0.20242723  1  -0.00126  -5e-05  -0.032557  -0.115337  -3.8e-05  3.968035  0.0
C  C77  1  0.32746811  0.44160554  0.79757169  1  -0.001323  5e-05  -0.032529  -0.115348  3.8e-05  3.968081  0.0
C  C78  1  0.30432719  0.97219116  0.55626253  1  0.056031  -0.000686  -0.090906  -0.16407  -0.000502  3.966019  -0.001
C  C79  1  0.69567227  0.02780517  0.44374268  1  0.055938  0.000685  -0.090848  -0.163872  0.000501  3.96588  0.001
C  C80  1  0.37313618  0.85114635  0.54393196  1  0.252836  -0.000106  0.106547  0.178061  -6.8e-05  3.997054  0.0
C  C81  1  0.62686331  0.14884716  0.45606786  1  0.253066  0.000106  0.106512  0.177994  6.8e-05  3.997202  0.0
C  C82  1  0.27191551  0.34797120  0.05461738  1  -0.005112  -0.000833  -0.085351  -0.084284  -0.000507  3.989749  -0.001
C  C83  1  0.72808796  0.65202611  0.94538217  1  -0.005083  0.000833  -0.085339  -0.084316  0.000508  3.989799  0.001
C  C84  1  0.55886033  0.72719257  0.42262120  1  0.267872  2e-05  0.082867  0.116193  1.9e-05  3.974867  0.0
C  C85  1  0.44113687  0.27280674  0.57737547  1  0.267961  -1.9e-05  0.082904  0.116235  -1.8e-05  3.974783  0.0
C  C86  1  0.54501595  0.52278484  0.19708394  1  0.387852  8.2e-05  0.0961  0.137708  5.6e-05  3.935895  0.0
C  C87  1  0.45498644  0.47721439  0.80291645  1  0.387966  -8.2e-05  0.096064  0.137671  -5.6e-05  3.935897  0.0
C  C88  1  0.51400514  0.83378243  0.29704706  1  0.524808  -8e-06  0.097304  0.208423  0.0  4.054229  0.0
C  C89  1  0.48599187  0.16622262  0.70295151  1  0.52478  8e-06  0.097379  0.208573  -1e-06  4.054314  0.0
C  C90  1  0.36111257  0.76656277  0.62369965  1  0.07967  0.000595  -0.102893  -0.187717  0.000442  4.000198  0.001
C  C91  1  0.63889196  0.23343264  0.37629700  1  0.079159  -0.000595  -0.102863  -0.187643  -0.000442  4.000149  -0.001
C  C92  1  0.71371420  0.66058445  0.25641413  1  0.004179  1.1e-05  -0.146012  -0.149817  -1e-05  4.006407  0.0
C  C93  1  0.28628477  0.33942346  0.74358393  1  0.003826  -1e-05  -0.146053  -0.149954  1e-05  4.006623  0.0
C  C94  1  0.51655400  0.88375077  0.19911136  1  -0.06144  -2.6e-05  -0.234707  -0.416895  -1e-05  3.932306  0.0
C  C95  1  0.48343871  0.11626006  0.80088791  1  -0.061082  2.5e-05  -0.234738  -0.416908  1e-05  3.932277  0.0
C  C96  1  0.62448829  0.64971306  0.48741948  1  -0.055453  1e-05  -0.230255  -0.414223  1e-05  4.001633  0.0
C  C97  1  0.37551092  0.35028627  0.51257403  1  -0.055338  -1e-05  -0.23029  -0.414301  -1e-05  4.001509  0.0
C  C98  1  0.40170226  0.56060472  0.25266908  1  -0.106009  -7e-06  -0.234764  -0.426507  -4e-06  3.985917  0.0
C  C99  1  0.59829695  0.43939647  0.74732916  1  -0.105725  7e-06  -0.234748  -0.426469  4e-06  3.985854  0.0
N  N100  1  0.70956111  0.40009210  0.09572382  1  -0.734182  7.9e-05  -0.225278  -0.286656  6.7e-05  3.256425  0.0
N  N101  1  0.29044239  0.59990518  0.90427846  1  -0.734306  -7.9e-05  -0.225296  -0.28674  -6.6e-05  3.256498  0.0
N  N102  1  0.57258614  0.42839298  0.13067073  1  -0.826428  -1.6e-05  -0.135203  0.075035  -1.7e-05  3.774381  0.0
N  N103  1  0.42741530  0.57160432  0.86933129  1  -0.826563  1.6e-05  -0.135213  0.075064  1.7e-05  3.774498  0.0
N  N104  1  0.42400609  0.88187777  0.37430380  1  -0.690013  -5.2e-05  -0.241727  -0.310221  -3.5e-05  3.13291  0.0
N  N105  1  0.57599116  0.11812149  0.62569766  1  -0.689966  5.2e-05  -0.241727  -0.310245  3.4e-05  3.132913  0.0
N  N106  1  0.45078856  0.81658508  0.45109582  1  -0.847691  -6.5e-05  -0.131649  0.06224  -4.1e-05  3.792761  0.0
N  N107  1  0.54920972  0.18341325  0.54890271  1  -0.847669  6.6e-05  -0.13169  0.06221  4.1e-05  3.792712  0.0
O  O108  1  0.06383157  0.06493077  0.83630707  1  -1.106024  0.086486  -0.315921  -0.52282  0.056039  2.315679  0.078
O  O109  1  0.93616925  0.93505596  0.16369818  1  -1.106191  -0.086496  -0.315973  -0.52282  -0.056046  2.315907  -0.078
O  O110  1  0.09775711  0.19823257  0.99072784  1  -1.109194  0.083416  -0.315784  -0.540463  0.054159  2.365648  0.075
O  O111  1  0.90224290  0.80177439  0.00926867  1  -1.109067  -0.08341  -0.31579  -0.540502  -0.054156  2.365802  -0.075
O  O112  1  0.19145478  0.01761138  0.04573670  1  -1.100013  -0.085061  -0.307931  -0.507076  -0.055189  2.34635  -0.077
O  O113  1  0.80854120  0.98239554  0.95426682  1  -1.100158  0.085067  -0.307966  -0.507092  0.055192  2.346263  0.077
O  O114  1  0.15474739  0.88498376  0.89386924  1  -1.107902  -0.085325  -0.316625  -0.539483  -0.055416  2.412244  -0.077
O  O115  1  0.84526856  0.11501053  0.10613397  1  -1.107861  0.085316  -0.316555  -0.539307  0.055409  2.41222  0.077
O  O116  1  0.82700573  0.27320506  0.92973883  1  -1.230996  -0.001624  -0.589457  -0.738308  -0.000906  2.069058  0.0
O  O117  1  0.17299576  0.72679127  0.07026459  1  -1.230968  0.001622  -0.589408  -0.73828  0.000905  2.069122  0.0
