# generated using pymatgen
data_NiH30C29N4O5
_symmetry_space_group_name_H-M   'P 1'
_cell_length_a   10.20298491
_cell_length_b   11.10510091
_cell_length_c   13.09359459
_cell_angle_alpha   88.03014660
_cell_angle_beta   72.19147853
_cell_angle_gamma   65.27151418
_symmetry_Int_Tables_number   1
_chemical_formula_structural   NiH30C29N4O5
_chemical_formula_sum   'Ni2 H60 C58 N8 O10'
_cell_volume   1275.42944123
_cell_formula_units_Z   2
loop_
 _symmetry_equiv_pos_site_id
 _symmetry_equiv_pos_as_xyz
  1  'x, y, z'
loop_
 _atom_site_type_symbol
 _atom_site_label
 _atom_site_symmetry_multiplicity
 _atom_site_fract_x
 _atom_site_fract_y
 _atom_site_fract_z
 _atom_site_occupancy
 _atom_site_pbe_bader_charge
 _atom_site_pbe_bader_spin_density
 _atom_site_pbe_cm5_charge
 _atom_site_pbe_ddec_charge
 _atom_site_pbe_ddec_spin_density
 _atom_site_pbe_ddec_sum_bond_order
 _atom_site_pbe_magmom
Ni  Ni0  1  0.63598755  0.88836236  0.64164028  1  1.093293  -0.005254  0.611466  0.718062  -0.005042  2.450774  -0.008
Ni  Ni1  1  0.36402731  0.11163160  0.35834148  1  1.093336  -0.005194  0.611579  0.718152  -0.004854  2.450964  -0.008
H  H2  1  0.70187297  0.00541667  0.44937087  1  0.645663  -3.5e-05  0.282914  0.375695  -0.000431  0.971729  -0.001
H  H3  1  0.29807048  0.99459246  0.55070210  1  0.645357  -3.1e-05  0.28279  0.37573  -0.000428  0.971652  -0.001
H  H4  1  0.81700800  0.96694101  0.52400764  1  0.645255  0.00049  0.285117  0.378251  7.6e-05  0.968162  0.001
H  H5  1  0.18296665  0.03305880  0.47605979  1  0.645481  0.000488  0.285128  0.378394  7.5e-05  0.968021  0.001
H  H6  1  0.27695862  0.79260942  0.91407256  1  0.097529  -0.000464  0.101445  0.101942  -0.000459  1.045932  0.0
H  H7  1  0.72309258  0.20736840  0.08593703  1  0.066258  -0.000471  0.101494  0.102113  -0.000457  1.046063  0.0
H  H8  1  0.85359320  0.82124404  0.88615422  1  0.089291  0.000454  0.104906  0.109866  0.000476  1.029232  0.0
H  H9  1  0.14643794  0.17875400  0.11388850  1  0.088662  0.000453  0.104888  0.109921  0.000475  1.028976  0.0
H  H10  1  0.15454646  0.91962161  0.62919669  1  0.107089  -0.000319  0.106507  0.107136  -0.000389  1.05252  0.0
H  H11  1  0.84546767  0.08037557  0.37083249  1  0.11117  -0.000321  0.106489  0.107071  -0.000392  1.052366  0.0
H  H12  1  0.07048188  0.56030992  0.97335614  1  0.013444  2e-06  0.083786  0.117296  -1e-06  1.019878  0.0
H  H13  1  0.92951808  0.43969334  0.02666703  1  0.013061  2e-06  0.083914  0.117387  -1e-06  1.019876  0.0
H  H14  1  0.06609846  0.57959928  0.10901030  1  0.016401  -2e-06  0.084154  0.11622  0.0  1.020813  0.0
H  H15  1  0.93390330  0.42039802  0.89101340  1  0.016376  -2e-06  0.08415  0.116209  0.0  1.021076  0.0
H  H16  1  0.22218825  0.57752613  0.00085792  1  -0.034307  -9e-06  0.081091  0.108587  -1e-06  1.049883  0.0
H  H17  1  0.77781940  0.42246315  0.99916158  1  -0.034161  -9e-06  0.08105  0.108478  -1e-06  1.050092  0.0
H  H18  1  0.02380082  0.81152408  0.18898269  1  0.008121  -1.5e-05  0.085936  0.124085  -2.4e-05  1.008128  0.0
H  H19  1  0.97619678  0.18849706  0.81104353  1  0.008125  -1.5e-05  0.085936  0.124  -2.4e-05  1.008113  0.0
H  H20  1  0.01846399  0.93802979  0.10178629  1  0.065584  6e-06  0.08174  0.118207  5e-06  1.06171  0.0
H  H21  1  0.98152900  0.06197745  0.89822236  1  0.065585  6e-06  0.081735  0.118192  5e-06  1.061815  0.0
H  H22  1  0.18967175  0.79186728  0.08189018  1  -0.022832  2e-06  0.079048  0.109179  2e-05  1.045687  0.0
H  H23  1  0.81032573  0.20814987  0.91812933  1  -0.022489  2e-06  0.079054  0.109157  2e-05  1.045626  0.0
H  H24  1  0.80166414  0.75395227  0.03909812  1  0.013409  0.0  0.083172  0.113935  -1.2e-05  1.027434  0.0
H  H25  1  0.19836475  0.24603367  0.96089814  1  0.013517  0.0  0.083128  0.113882  -1.2e-05  1.027443  0.0
H  H26  1  0.77828499  0.91519806  0.07893489  1  0.03227  -2e-05  0.089091  0.13095  -2.6e-05  1.004519  0.0
H  H27  1  0.22172348  0.08479406  0.92106141  1  0.032167  -2e-05  0.089104  0.130964  -2.6e-05  1.004596  0.0
H  H28  1  0.81578699  0.78789588  0.16545725  1  0.01892  2.2e-05  0.082248  0.113776  1.6e-05  1.013746  0.0
H  H29  1  0.18420720  0.21210240  0.83454757  1  0.019022  2.3e-05  0.082184  0.113635  1.6e-05  1.013871  0.0
H  H30  1  0.68509551  0.62576146  0.78415935  1  0.095622  -7.5e-05  0.10875  0.129778  -2.9e-05  1.00606  0.0
H  H31  1  0.31491865  0.37425132  0.21581817  1  0.095433  -7.6e-05  0.108774  0.129711  -3e-05  1.006192  0.0
H  H32  1  0.74619244  0.38610375  0.81314254  1  0.05451  1.1e-05  0.094612  0.09243  1.2e-05  1.050358  0.0
H  H33  1  0.25381756  0.61391114  0.18685041  1  0.054123  1.1e-05  0.094554  0.092325  1.2e-05  1.050565  0.0
H  H34  1  0.85249356  0.21251375  0.65845191  1  0.118704  -7e-05  0.103785  0.118348  -7.5e-05  1.008578  0.0
H  H35  1  0.14749993  0.78749248  0.34155436  1  0.118674  -7e-05  0.103807  0.118396  -7.5e-05  1.008627  0.0
H  H36  1  0.90248240  0.27051683  0.47107901  1  0.109276  -0.000199  0.107494  0.124214  -0.000146  1.023482  0.0
H  H37  1  0.09750784  0.72947254  0.52891786  1  0.109478  -0.000201  0.107506  0.124296  -0.000146  1.023437  0.0
H  H38  1  0.78870364  0.75238535  0.40803195  1  0.170006  9.4e-05  0.141343  0.117039  0.000161  1.008778  0.0
H  H39  1  0.21126654  0.24760315  0.59194446  1  0.170083  9.2e-05  0.141321  0.117038  0.00016  1.008915  0.0
H  H40  1  0.97147922  0.40648191  0.29501238  1  0.108703  0.000107  0.114697  0.106328  0.000151  0.981955  0.0
H  H41  1  0.02849669  0.59350956  0.70497482  1  0.109001  0.000107  0.114695  0.106393  0.000151  0.981775  0.0
H  H42  1  0.87618573  0.57349325  0.26940315  1  0.057699  -6e-06  0.112963  0.088744  -4e-06  0.988152  0.0
H  H43  1  0.12381616  0.42649988  0.73057940  1  0.057991  -6e-06  0.112982  0.088805  -4e-06  0.988126  0.0
H  H44  1  0.73802440  0.37583226  0.35142356  1  0.056742  -4e-06  0.096469  0.098239  -2e-06  1.017181  0.0
H  H45  1  0.26193872  0.62418816  0.64857645  1  0.056649  -4e-06  0.096351  0.098152  -2e-06  1.017156  0.0
H  H46  1  0.75484949  0.44039573  0.22680477  1  0.050703  -4.2e-05  0.098757  0.103874  -2.7e-05  1.009757  0.0
H  H47  1  0.24512800  0.55959672  0.77318508  1  0.050258  -4.2e-05  0.098719  0.103752  -2.7e-05  1.009903  0.0
H  H48  1  0.48905034  0.53816334  0.35881874  1  0.076493  2.9e-05  0.110454  0.092105  2.5e-05  0.996047  0.0
H  H49  1  0.51092320  0.46185691  0.64116889  1  0.076913  2.9e-05  0.110347  0.091977  2.5e-05  0.995916  0.0
H  H50  1  0.55008237  0.59940457  0.44977809  1  0.070849  1.4e-05  0.115138  0.094389  9e-06  0.978866  0.0
H  H51  1  0.44990412  0.40061448  0.55020041  1  0.070971  1.4e-05  0.115115  0.094427  9e-06  0.97855  0.0
H  H52  1  0.49891967  0.83347459  0.44763448  1  0.185541  -0.000134  0.138973  0.110187  -4e-05  1.040981  0.0
H  H53  1  0.50102966  0.16654894  0.55235951  1  0.185592  -0.000131  0.139038  0.110381  -3.8e-05  1.04102  0.0
H  H54  1  0.40970428  0.02081451  0.10795547  1  0.115369  -1.8e-05  0.110139  0.122407  1.1e-05  1.02044  0.0
H  H55  1  0.59031630  0.97920213  0.89201660  1  0.115471  -1.8e-05  0.110166  0.122498  1.2e-05  1.020417  0.0
H  H56  1  0.44954185  0.86544871  0.95427585  1  0.131466  -0.000109  0.10054  0.107507  -0.000108  1.052035  0.0
H  H57  1  0.55048796  0.13456583  0.04569411  1  0.13138  -0.000108  0.100518  0.10751  -0.000107  1.052056  0.0
H  H58  1  0.52926192  0.62594366  0.96950661  1  0.061573  -8e-05  0.098449  0.097373  -6.3e-05  1.009483  0.0
H  H59  1  0.47074517  0.37407317  0.03047169  1  0.061894  -8e-05  0.098455  0.097406  -6.2e-05  1.009541  0.0
H  H60  1  0.57352150  0.52858674  0.13770681  1  0.078254  -0.00024  0.103319  0.108951  -0.000156  1.023023  0.0
H  H61  1  0.42646033  0.47143339  0.86227887  1  0.077807  -0.000239  0.103333  0.108936  -0.000155  1.023102  0.0
C  C62  1  0.38018286  0.86609005  0.71978122  1  1.538859  0.001259  0.199508  0.554547  0.000937  4.191646  0.001
C  C63  1  0.61982649  0.13388313  0.28019560  1  1.539924  0.001262  0.199485  0.554673  0.00094  4.191607  0.001
C  C64  1  0.23404436  0.85288345  0.76620331  1  -0.042274  -0.002663  -0.023083  -0.037652  -0.0023  4.013173  -0.002
C  C65  1  0.76597120  0.14711074  0.23382563  1  -0.042365  -0.002681  -0.02305  -0.037671  -0.002314  4.012994  -0.002
C  C66  1  0.19647884  0.81289947  0.86989211  1  -0.114124  0.00046  -0.081018  -0.141069  0.000261  3.915984  0.0
C  C67  1  0.80355575  0.18708945  0.13011952  1  -0.081877  0.000472  -0.081156  -0.141243  0.000266  3.915625  0.0
C  C68  1  0.05827312  0.80297126  0.91691844  1  0.022642  0.000318  -0.001268  0.061555  0.000245  3.868066  0.0
C  C69  1  0.94175817  0.19702872  0.08311424  1  0.022837  0.000317  -0.001152  0.06164  0.000244  3.867839  0.0
C  C70  1  0.96089425  0.82966256  0.85491279  1  -0.074203  0.000574  -0.081045  -0.139084  0.00062  3.916831  0.0
C  C71  1  0.03912702  0.17033256  0.14511783  1  -0.07311  0.000573  -0.081174  -0.139292  0.00062  3.916819  0.0
C  C72  1  0.99602587  0.87135973  0.75198150  1  -0.040092  0.00844  -0.019174  -0.030957  0.007527  4.005119  0.007
C  C73  1  0.00398276  0.12862958  0.24804616  1  -0.044082  0.008448  -0.019279  -0.031137  0.007525  4.005126  0.007
C  C74  1  0.13179751  0.88410454  0.70814068  1  -0.044879  0.001063  -0.082382  -0.126153  0.000943  3.973495  0.001
C  C75  1  0.86820248  0.11589870  0.29187790  1  -0.04932  0.001062  -0.082405  -0.126097  0.000943  3.973918  0.001
C  C76  1  0.88956595  0.90269310  0.68687235  1  1.544261  -0.00067  0.203368  0.547956  0.00099  4.230087  -0.002
C  C77  1  0.11047868  0.09725514  0.31315192  1  1.545156  -0.000681  0.203411  0.548329  0.000992  4.230492  -0.002
C  C78  1  0.01582714  0.76398429  0.03181974  1  0.069806  6.2e-05  -0.015522  0.236278  5.2e-05  3.804509  0.0
C  C79  1  0.98418713  0.23601483  0.96820094  1  0.070281  6.2e-05  -0.015567  0.235949  5.1e-05  3.804815  0.0
C  C80  1  0.09826670  0.61148104  0.02824867  1  -0.008433  -1.3e-05  -0.245542  -0.415594  -7e-06  3.899755  0.0
C  C81  1  0.90174280  0.38851516  0.97177171  1  -0.008457  -1.3e-05  -0.245573  -0.415478  -7e-06  3.900326  0.0
C  C82  1  0.06532199  0.83002775  0.10491462  1  -0.040328  2.3e-05  -0.248929  -0.415825  2.9e-05  3.875231  0.0
C  C83  1  0.93467927  0.16998143  0.89510577  1  -0.041207  2.3e-05  -0.248954  -0.415675  2.9e-05  3.875267  0.0
C  C84  1  0.84321641  0.80784704  0.08051272  1  -0.056788  1.1e-05  -0.246965  -0.415472  -1e-05  3.895225  0.0
C  C85  1  0.15679622  0.19214706  0.91949171  1  -0.057099  1e-05  -0.246955  -0.415274  -1e-05  3.895303  0.0
C  C86  1  0.75804976  0.58201221  0.61098589  1  0.314886  -0.000897  0.087392  0.139826  -0.000995  4.038231  -0.001
C  C87  1  0.24194881  0.41798789  0.38899646  1  0.314092  -0.000902  0.087236  0.139714  -0.001  4.038408  -0.001
C  C88  1  0.73145590  0.54879349  0.71707761  1  0.074161  -0.000222  -0.095835  -0.164337  -0.000192  3.988168  0.0
C  C89  1  0.26855067  0.45121146  0.28290195  1  0.073974  -0.000224  -0.095709  -0.164086  -0.000194  3.987774  0.0
C  C90  1  0.76607093  0.41537374  0.73169011  1  -0.082264  0.000103  -0.104918  -0.115502  9.8e-05  4.065173  0.0
C  C91  1  0.23392506  0.58464033  0.26830388  1  -0.081683  0.000104  -0.104908  -0.115487  9.9e-05  4.065164  0.0
C  C92  1  0.82596520  0.31629245  0.64417656  1  -0.038352  -7e-06  -0.097041  -0.084667  -3.4e-05  3.998434  0.0
C  C93  1  0.17402214  0.68371381  0.35582123  1  -0.039111  -7e-06  -0.097133  -0.084814  -3.4e-05  3.998548  0.0
C  C94  1  0.85341192  0.34798780  0.53811342  1  -0.040945  -0.000159  -0.095131  -0.157702  -0.000161  3.978561  0.0
C  C95  1  0.14657589  0.65200454  0.46187934  1  -0.040484  -0.00016  -0.095193  -0.15787  -0.000162  3.978584  0.0
C  C96  1  0.81876794  0.48176802  0.52317125  1  0.293244  -0.000925  0.086219  0.075163  -0.000782  4.009334  -0.001
C  C97  1  0.18122248  0.51822326  0.47681329  1  0.293731  -0.000934  0.086369  0.075292  -0.00079  4.009497  -0.001
C  C98  1  0.78516585  0.67825945  0.46344582  1  0.989665  -0.00023  0.156328  0.113983  -0.000174  3.932345  0.0
C  C99  1  0.21482408  0.32173284  0.53654034  1  0.989593  -0.00023  0.156385  0.114035  -0.000178  3.931946  0.0
C  C100  1  0.86297505  0.49659407  0.32112541  1  0.285892  -0.000121  -0.048298  -0.054539  -0.000135  3.877675  0.0
C  C101  1  0.13700838  0.50340324  0.67885984  1  0.285225  -0.000123  -0.048244  -0.054646  -0.000137  3.877459  0.0
C  C102  1  0.73335408  0.46603797  0.31242303  1  -0.031891  -6e-05  -0.165074  -0.209078  -6e-05  3.933787  0.0
C  C103  1  0.26661857  0.53397335  0.68756279  1  -0.030904  -6e-05  -0.164967  -0.208871  -6e-05  3.933787  0.0
C  C104  1  0.57200253  0.57492720  0.36379078  1  0.29618  -0.000122  -0.049223  -0.052782  -0.000114  3.885192  0.0
C  C105  1  0.42797303  0.42509101  0.63619109  1  0.295973  -0.00012  -0.049083  -0.052697  -0.000112  3.884735  0.0
C  C106  1  0.50007230  0.82142479  0.36527379  1  0.988477  0.001571  0.1587  0.112987  0.001542  3.905471  0.001
C  C107  1  0.49990116  0.17859346  0.63471239  1  0.988131  0.001578  0.158593  0.112731  0.001552  3.905297  0.001
C  C108  1  0.47435755  0.85999653  0.20666395  1  0.399434  -0.001038  0.095215  0.153369  -0.001231  4.007948  -0.001
C  C109  1  0.52564053  0.14001546  0.79331510  1  0.399193  -0.001037  0.095115  0.153401  -0.001229  4.007959  -0.001
C  C110  1  0.44714255  0.91434321  0.11318519  1  0.009525  -0.00022  -0.082366  -0.135122  -0.000199  3.939842  0.0
C  C111  1  0.55286551  0.08567161  0.88678989  1  0.009183  -0.000218  -0.082382  -0.135388  -0.000198  3.940079  0.0
C  C112  1  0.46870455  0.82766215  0.02891404  1  -0.105976  -3.2e-05  -0.100214  -0.105459  -3.1e-05  4.014813  0.0
C  C113  1  0.53130659  0.17235266  0.97106490  1  -0.105356  -3.1e-05  -0.100282  -0.105528  -3e-05  4.015183  0.0
C  C114  1  0.51453039  0.69003008  0.03737195  1  -0.047526  -9.6e-05  -0.099522  -0.092559  -8.3e-05  4.036099  0.0
C  C115  1  0.48546682  0.30998588  0.96260794  1  -0.047052  -9.6e-05  -0.099441  -0.092503  -8.3e-05  4.036344  0.0
C  C116  1  0.54097200  0.63434565  0.13014562  1  -0.034463  -8.7e-05  -0.096468  -0.172183  -8e-05  4.041069  0.0
C  C117  1  0.45901550  0.36567341  0.86983646  1  -0.035086  -8.6e-05  -0.09655  -0.172263  -7.9e-05  4.040967  0.0
C  C118  1  0.52167189  0.72126711  0.21362647  1  0.296112  -0.001219  0.09203  0.086334  -0.000999  3.999618  -0.001
C  C119  1  0.47832116  0.27874891  0.78635669  1  0.294681  -0.001212  0.092109  0.086477  -0.000994  3.999332  -0.001
N  N120  1  0.73758666  0.70371252  0.57004837  1  -1.156287  -0.015583  -0.352153  -0.302887  -0.013414  3.571498  -0.012
N  N121  1  0.26242035  0.29627854  0.42992922  1  -1.156296  -0.015771  -0.352179  -0.302914  -0.013573  3.571065  -0.012
N  N122  1  0.83425797  0.54732291  0.43076555  1  -1.234155  -0.000537  -0.247327  -0.02838  -0.000416  3.738284  0.0
N  N123  1  0.16572688  0.45267142  0.56921945  1  -1.233998  -0.000544  -0.247387  -0.028362  -0.000421  3.738363  0.0
N  N124  1  0.46190723  0.91939401  0.30346182  1  -1.18144  -0.017357  -0.349795  -0.317479  -0.015041  3.577252  -0.014
N  N125  1  0.53807858  0.08062210  0.69652152  1  -1.180853  -0.017208  -0.349621  -0.317307  -0.014918  3.57709  -0.014
N  N126  1  0.53787389  0.70021711  0.31512740  1  -1.235795  0.000165  -0.243824  -0.023002  0.000129  3.723509  0.0
N  N127  1  0.46210690  0.29980304  0.68485928  1  -1.234935  0.000174  -0.243888  -0.023101  0.000136  3.723569  0.0
O  O128  1  0.46868128  0.84289271  0.77546969  1  -1.137867  -0.067858  -0.295837  -0.516063  -0.056375  2.219696  -0.06
O  O129  1  0.53135609  0.15712970  0.22450436  1  -1.137817  -0.067597  -0.295851  -0.516076  -0.056159  2.220156  -0.06
O  O130  1  0.41438666  0.90081844  0.62366808  1  -1.169101  0.061702  -0.31436  -0.565073  0.05257  2.256407  0.053
O  O131  1  0.58562086  0.09908731  0.37630057  1  -1.16971  0.061687  -0.314277  -0.565118  0.05256  2.255787  0.053
O  O132  1  0.79757180  0.84701749  0.71273536  1  -1.104127  0.104609  -0.310356  -0.529359  0.086795  2.354378  0.093
O  O133  1  0.20244794  0.15294399  0.28730505  1  -1.101491  0.104507  -0.310267  -0.529363  0.086718  2.355248  0.093
O  O134  1  0.90025441  0.97639935  0.61212750  1  -1.162878  0.00082  -0.308724  -0.527165  0.00039  2.172264  0.001
O  O135  1  0.09980977  0.02351677  0.38786336  1  -1.163748  0.000815  -0.308618  -0.527199  0.000387  2.172413  0.001
O  O136  1  0.76083583  0.93555327  0.48785327  1  -1.269305  -0.065361  -0.575846  -0.761848  -0.054431  2.150751  -0.056
O  O137  1  0.23911149  0.06446957  0.51219621  1  -1.269417  -0.065185  -0.575792  -0.762179  -0.054288  2.150471  -0.055
