# generated using pymatgen
data_Cu3H54C70(N7O6)2
_symmetry_space_group_name_H-M   'P 1'
_cell_length_a   13.96270938
_cell_length_b   13.22321848
_cell_length_c   19.98672846
_cell_angle_alpha   90.00247089
_cell_angle_beta   89.99693130
_cell_angle_gamma   96.57317562
_symmetry_Int_Tables_number   1
_chemical_formula_structural   Cu3H54C70(N7O6)2
_chemical_formula_sum   'Cu6 H108 C140 N28 O24'
_cell_volume   3665.93120075
_cell_formula_units_Z   2
loop_
 _symmetry_equiv_pos_site_id
 _symmetry_equiv_pos_as_xyz
  1  'x, y, z'
loop_
 _atom_site_type_symbol
 _atom_site_label
 _atom_site_symmetry_multiplicity
 _atom_site_fract_x
 _atom_site_fract_y
 _atom_site_fract_z
 _atom_site_occupancy
 _atom_site_pbe_bader_charge
 _atom_site_pbe_bader_spin_density
 _atom_site_pbe_cm5_charge
 _atom_site_pbe_ddec_charge
 _atom_site_pbe_ddec_spin_density
 _atom_site_pbe_ddec_sum_bond_order
 _atom_site_pbe_magmom
Cu  Cu0  1  0.99999562  0.99999259  0.49999774  1  1.051713  0.563499  0.741212  0.765056  0.726084  2.244805  0.564
Cu  Cu1  1  0.00000606  0.49999096  0.99999034  1  1.051282  0.563502  0.741241  0.76513  0.726087  2.244684  0.564
Cu  Cu2  1  0.41646752  0.21532240  0.73077836  1  1.054161  0.57018  0.738274  0.756613  0.72944  2.303397  0.568
Cu  Cu3  1  0.58352170  0.28465290  0.23077990  1  1.053957  0.570184  0.738283  0.756554  0.729402  2.303475  0.568
Cu  Cu4  1  0.58353662  0.78465925  0.26922968  1  1.054033  0.570183  0.738289  0.756599  0.729445  2.303487  0.568
Cu  Cu5  1  0.41647427  0.71534447  0.76922914  1  1.054112  0.570178  0.738343  0.756603  0.729425  2.303424  0.568
H  H6  1  0.85150344  0.70882629  0.43701500  1  0.089806  0.000481  0.106398  0.074994  0.000448  1.006226  0.0
H  H7  1  0.14846771  0.79118684  0.93700798  1  0.090171  0.000481  0.106227  0.074699  0.000448  1.006324  0.0
H  H8  1  0.14848264  0.29116529  0.56299453  1  0.089558  0.00048  0.106287  0.074807  0.000448  1.006233  0.0
H  H9  1  0.85149521  0.20884477  0.06299505  1  0.089797  0.00048  0.106348  0.074913  0.000448  1.006257  0.0
H  H10  1  0.64450526  0.58657269  0.62546015  1  0.084975  0.000166  0.102135  0.108026  6.2e-05  1.027447  0.0
H  H11  1  0.35549340  0.91341257  0.12544135  1  0.085329  0.000166  0.102201  0.10804  6.2e-05  1.027153  0.0
H  H12  1  0.35546616  0.41344471  0.37454639  1  0.085424  0.000166  0.102118  0.108009  6.2e-05  1.027401  0.0
H  H13  1  0.64451665  0.08654275  0.87455868  1  0.085642  0.000166  0.102163  0.107997  6.2e-05  1.027443  0.0
H  H14  1  0.74910324  0.75047094  0.63679877  1  0.105302  2.9e-05  0.106312  0.107492  -3e-06  1.011906  0.0
H  H15  1  0.25088759  0.74951492  0.13677327  1  0.105916  2.9e-05  0.106402  0.107463  -3e-06  1.012096  0.0
H  H16  1  0.25087315  0.24954276  0.36320576  1  0.105161  2.9e-05  0.106346  0.1075  -3e-06  1.011961  0.0
H  H17  1  0.74910532  0.25044790  0.86321426  1  0.10503  2.9e-05  0.1064  0.107551  -3e-06  1.011925  0.0
H  H18  1  0.66477709  0.46564018  0.40694169  1  0.094605  0.00056  0.100666  0.103488  0.000537  1.053064  0.0
H  H19  1  0.33522899  0.03434714  0.90693286  1  0.094418  0.00056  0.100634  0.103415  0.000537  1.053043  0.0
H  H20  1  0.33521288  0.53435947  0.59307235  1  0.093926  0.00056  0.10065  0.103537  0.000537  1.053053  0.0
H  H21  1  0.66478635  0.96561609  0.09307568  1  0.093886  0.00056  0.100677  0.103608  0.000537  1.053055  0.0
H  H22  1  0.43847297  0.23505165  0.46704542  1  0.109859  5.2e-05  0.106473  0.113988  -1e-05  1.034801  0.0
H  H23  1  0.56150253  0.26495815  0.96704990  1  0.110444  5.2e-05  0.106553  0.114114  -1e-05  1.034627  0.0
H  H24  1  0.56149267  0.76496567  0.53295111  1  0.110406  5.2e-05  0.106537  0.114041  -1e-05  1.034568  0.0
H  H25  1  0.43849577  0.73502652  0.03296214  1  0.109923  5.2e-05  0.106527  0.114078  -1e-05  1.034605  0.0
H  H26  1  0.57336792  0.44157924  0.61279079  1  0.095312  0.000652  0.101558  0.103953  0.000571  1.03535  0.0
H  H27  1  0.42661461  0.05840994  0.11278138  1  0.095353  0.000653  0.10156  0.103965  0.000571  1.035266  0.0
H  H28  1  0.42660319  0.55841647  0.38721925  1  0.095384  0.000653  0.101522  0.103861  0.000571  1.035456  0.0
H  H29  1  0.57338710  0.94157045  0.88722666  1  0.095474  0.000653  0.101474  0.103919  0.000571  1.035255  0.0
H  H30  1  0.80465310  0.92806595  0.41769962  1  0.201359  0.000228  0.146646  0.127127  -1.5e-05  0.980054  0.0
H  H31  1  0.19533894  0.57192632  0.91768623  1  0.201086  0.000228  0.146639  0.127112  -1.5e-05  0.980201  0.0
H  H32  1  0.19531558  0.07192850  0.58230341  1  0.200957  0.000228  0.146605  0.127098  -1.5e-05  0.980081  0.0
H  H33  1  0.80467033  0.42806247  0.08230430  1  0.200792  0.000228  0.146646  0.127163  -1.5e-05  0.980052  0.0
H  H34  1  0.72778895  0.22467813  0.44990144  1  0.134475  0.000974  0.126685  0.132186  0.000476  1.005834  0.001
H  H35  1  0.27224921  0.27533627  0.94988112  1  0.133274  0.000975  0.126694  0.132306  0.000476  1.005635  0.001
H  H36  1  0.27222036  0.77532773  0.55011560  1  0.133884  0.000975  0.126647  0.132248  0.000476  1.005759  0.001
H  H37  1  0.72777524  0.72465611  0.05009840  1  0.1338  0.000974  0.126687  0.132181  0.000476  1.005854  0.001
H  H38  1  0.91306714  0.21137944  0.50133731  1  0.141077  0.000549  0.125418  0.129067  0.000175  0.989594  0.001
H  H39  1  0.08696149  0.28861020  0.00132544  1  0.117615  0.000552  0.125328  0.129094  0.000175  0.989681  0.001
H  H40  1  0.08694797  0.78860631  0.49865972  1  0.140732  0.000549  0.12543  0.129139  0.000175  0.989641  0.001
H  H41  1  0.91306200  0.71136756  0.99865709  1  0.14147  0.000549  0.125407  0.129071  0.000175  0.989549  0.001
H  H42  1  0.65037435  0.96450103  0.36876603  1  0.116029  -0.000144  0.116021  0.102671  -0.000294  1.012208  0.0
H  H43  1  0.34963531  0.53551263  0.86875187  1  0.115778  -0.000144  0.116054  0.102669  -0.000294  1.012031  0.0
H  H44  1  0.34958891  0.03551192  0.63125701  1  0.116315  -0.000144  0.115983  0.102562  -0.000294  1.012137  0.0
H  H45  1  0.65038292  0.46448439  0.13124065  1  0.115749  -0.000144  0.115969  0.102531  -0.000294  1.012211  0.0
H  H46  1  0.62627727  0.09349164  0.35990152  1  0.101309  8.4e-05  0.1143  0.106857  2e-06  0.980807  0.0
H  H47  1  0.37374518  0.40652984  0.85987559  1  0.100549  8.4e-05  0.114309  0.106787  2e-06  0.980869  0.0
H  H48  1  0.37371019  0.90653003  0.64011452  1  0.100551  8.4e-05  0.114364  0.106715  2e-06  0.980977  0.0
H  H49  1  0.62627008  0.59346676  0.14010744  1  0.100585  8.4e-05  0.114318  0.106812  2e-06  0.98071  0.0
H  H50  1  0.65977904  0.93834762  0.51595536  1  0.081806  1.4e-05  0.100766  0.103125  -3e-06  1.009307  0.0
H  H51  1  0.34022090  0.56167630  0.01593581  1  0.081542  1.4e-05  0.100875  0.103316  -3e-06  1.009112  0.0
H  H52  1  0.34019205  0.06167836  0.48406169  1  0.081146  1.4e-05  0.100829  0.103224  -3e-06  1.009001  0.0
H  H53  1  0.65979637  0.43830609  0.98404921  1  0.081005  1.4e-05  0.100846  0.103267  -3e-06  1.009003  0.0
H  H54  1  0.46634829  0.09530629  0.39722326  1  0.123967  -1.2e-05  0.098004  0.110209  9e-06  1.058382  0.0
H  H55  1  0.53365799  0.40469006  0.89720439  1  0.12385  -1.2e-05  0.098033  0.11025  9e-06  1.058446  0.0
H  H56  1  0.53362426  0.90471641  0.60279329  1  0.12396  -1.2e-05  0.098094  0.110419  9e-06  1.058294  0.0
H  H57  1  0.46635425  0.59528905  0.10278113  1  0.124413  -1.2e-05  0.098099  0.110324  9e-06  1.058371  0.0
H  H58  1  0.60363547  0.21122470  0.64023149  1  0.132963  0.00035  0.139226  0.108985  1.8e-05  1.001529  0.0
H  H59  1  0.39635784  0.28877230  0.14022910  1  0.132938  0.00035  0.139251  0.108992  1.9e-05  1.001545  0.0
H  H60  1  0.39636974  0.78876535  0.35978855  1  0.132645  0.00035  0.13919  0.10876  1.8e-05  1.001587  0.0
H  H61  1  0.60363666  0.71123844  0.85978494  1  0.132822  0.00035  0.139168  0.108751  1.8e-05  1.001635  0.0
H  H62  1  0.64147602  0.92802036  0.72942393  1  0.133979  0.001053  0.132574  0.14098  0.000522  0.977907  0.001
H  H63  1  0.35855621  0.57199674  0.22942806  1  0.133905  0.001053  0.132562  0.140966  0.000522  0.977948  0.001
H  H64  1  0.35849998  0.07193751  0.27056159  1  0.13256  0.001054  0.132507  0.14106  0.000522  0.977839  0.001
H  H65  1  0.64149684  0.42805196  0.77055646  1  0.134223  0.001053  0.132531  0.14106  0.000522  0.978018  0.001
H  H66  1  0.47087794  0.99260427  0.77508791  1  0.147141  0.0005  0.121807  0.125418  0.00012  1.008658  0.001
H  H67  1  0.52912438  0.50736464  0.27510369  1  0.146877  0.0005  0.121896  0.125625  0.00012  1.008551  0.001
H  H68  1  0.52910211  0.00735234  0.22490112  1  0.147336  0.0005  0.12191  0.125724  0.00012  1.00842  0.001
H  H69  1  0.47091271  0.49264641  0.72489084  1  0.147413  0.0005  0.121865  0.125617  0.00012  1.00849  0.001
H  H70  1  0.73791623  0.11245914  0.59430522  1  0.083087  4.9e-05  0.111655  0.094821  1.2e-05  0.991531  0.0
H  H71  1  0.26211229  0.38757685  0.09429441  1  0.083849  4.9e-05  0.111624  0.094676  1.2e-05  0.991596  0.0
H  H72  1  0.26207980  0.88752503  0.40570482  1  0.083244  4.9e-05  0.111604  0.094859  1.2e-05  0.991571  0.0
H  H73  1  0.73791320  0.61247439  0.90570012  1  0.083351  4.9e-05  0.111628  0.094816  1.2e-05  0.991643  0.0
H  H74  1  0.75967292  0.99703532  0.63234903  1  0.131771  3.7e-05  0.119169  0.124046  2.7e-05  0.983294  0.0
H  H75  1  0.24037438  0.50300845  0.13234512  1  0.131386  3.7e-05  0.119183  0.123935  2.7e-05  0.983006  0.0
H  H76  1  0.24031901  0.00294314  0.36765550  1  0.131655  3.7e-05  0.119214  0.124034  2.7e-05  0.983456  0.0
H  H77  1  0.75966732  0.49704782  0.86765041  1  0.131956  3.7e-05  0.119241  0.124135  2.7e-05  0.983297  0.0
H  H78  1  0.92976551  0.03790866  0.64696116  1  0.114109  -0.000178  0.098696  0.107719  -0.000302  1.058411  0.0
H  H79  1  0.07024644  0.46213105  0.14695486  1  0.122147  -0.000178  0.098794  0.107893  -0.000302  1.058547  0.0
H  H80  1  0.07023188  0.96206837  0.35304038  1  0.114131  -0.000179  0.098655  0.107636  -0.000302  1.058459  0.0
H  H81  1  0.92976130  0.53789439  0.85301665  1  0.114237  -0.000179  0.098724  0.107763  -0.000302  1.05851  0.0
H  H82  1  0.06485568  0.12680311  0.71316222  1  0.049339  3.4e-05  0.096225  0.093764  9e-06  1.014942  0.0
H  H83  1  0.93514759  0.37325243  0.21315616  1  0.051102  3.4e-05  0.096328  0.09388  9e-06  1.014823  0.0
H  H84  1  0.93514830  0.87317777  0.28683081  1  0.049082  3.4e-05  0.096191  0.093775  9e-06  1.014748  0.0
H  H85  1  0.06485478  0.62677831  0.78680585  1  0.049587  3.4e-05  0.09637  0.094089  9e-06  1.014714  0.0
H  H86  1  0.03526687  0.35416323  0.82447760  1  0.092852  0.000118  0.117662  0.112593  6.4e-05  0.965157  0.0
H  H87  1  0.96473615  0.14588709  0.32446600  1  0.093589  0.000118  0.117598  0.11256  6.4e-05  0.965144  0.0
H  H88  1  0.96473337  0.64583052  0.17550892  1  0.092681  0.000118  0.117588  0.112623  6.4e-05  0.96507  0.0
H  H89  1  0.03527980  0.85413969  0.67550651  1  0.093157  0.000118  0.117566  0.112387  6.4e-05  0.965323  0.0
H  H90  1  0.06588311  0.23388066  0.84877984  1  0.093628  2.3e-05  0.118077  0.102535  7e-06  0.964794  0.0
H  H91  1  0.93408735  0.26616064  0.34877152  1  0.094013  2.4e-05  0.118056  0.102613  7e-06  0.964586  0.0
H  H92  1  0.93412366  0.76612007  0.15121769  1  0.093564  2.3e-05  0.118077  0.102522  7e-06  0.96471  0.0
H  H93  1  0.06591196  0.73385572  0.65120950  1  0.093869  2.3e-05  0.117984  0.102514  7e-06  0.964772  0.0
H  H94  1  0.22863832  0.19002589  0.82010151  1  0.174165  0.000159  0.13827  0.112079  -7.4e-05  1.002605  0.0
H  H95  1  0.77133417  0.30996866  0.32009879  1  0.174155  0.000158  0.138277  0.11203  -7.4e-05  1.002596  0.0
H  H96  1  0.77136311  0.80995995  0.17989802  1  0.173916  0.000158  0.138292  0.112189  -7.4e-05  1.002484  0.0
H  H97  1  0.22867157  0.69004072  0.67988973  1  0.174014  0.000158  0.138268  0.112167  -7.4e-05  1.002473  0.0
H  H98  1  0.30671337  0.38938900  0.65937717  1  0.167023  0.000628  0.123615  0.124326  0.000218  1.021487  0.001
H  H99  1  0.69332750  0.11061517  0.15935031  1  0.167201  0.000628  0.12359  0.124179  0.000218  1.021491  0.001
H  H100  1  0.69332408  0.61063054  0.34064538  1  0.16735  0.000628  0.123668  0.124374  0.000218  1.021404  0.001
H  H101  1  0.30666922  0.88938909  0.84064221  1  0.167114  0.000628  0.123668  0.124336  0.000218  1.021405  0.001
H  H102  1  0.12068836  0.41580132  0.70002585  1  0.13157  0.001035  0.129437  0.131275  0.000531  0.986161  0.001
H  H103  1  0.87935391  0.08424269  0.19999507  1  0.130201  0.001037  0.129464  0.131372  0.000531  0.986373  0.001
H  H104  1  0.87934089  0.58420678  0.29997718  1  0.130695  0.001035  0.12945  0.131348  0.00053  0.98629  0.001
H  H105  1  0.12065469  0.91578342  0.79997944  1  0.130742  0.001035  0.12949  0.131322  0.000531  0.986431  0.001
H  H106  1  0.87184867  0.32470521  0.79694181  1  0.092088  -1.4e-05  0.100225  0.110745  1.1e-05  1.036231  0.0
H  H107  1  0.12814594  0.17535173  0.29692825  1  0.093007  -1.4e-05  0.100261  0.110731  1.1e-05  1.036343  0.0
H  H108  1  0.12815953  0.67526508  0.20306623  1  0.091425  -1.4e-05  0.100301  0.110858  1.1e-05  1.0362  0.0
H  H109  1  0.87186246  0.82471398  0.70307028  1  0.091948  -1.4e-05  0.100268  0.110759  1.1e-05  1.036192  0.0
H  H110  1  0.73714899  0.23636061  0.73072531  1  0.042995  5e-06  0.099855  0.099134  -2.7e-05  1.021573  0.0
H  H111  1  0.26285115  0.26368941  0.23071937  1  0.044279  5e-06  0.099749  0.098935  -2.7e-05  1.021493  0.0
H  H112  1  0.26285051  0.76360607  0.26929023  1  0.041673  5e-06  0.099916  0.09915  -2.7e-05  1.021463  0.0
H  H113  1  0.73716400  0.73638092  0.76929567  1  0.041992  5e-06  0.099833  0.099015  -2.7e-05  1.021442  0.0
C  C114  1  0.80717179  0.68209686  0.47993429  1  0.543261  5.9e-05  0.048304  0.096007  -0.000108  3.984338  0.0
C  C115  1  0.19280505  0.81791083  0.97992566  1  0.54304  5.8e-05  0.048551  0.096425  -0.000108  3.984574  0.0
C  C116  1  0.19280964  0.31789993  0.52007324  1  0.544512  5.8e-05  0.048389  0.096134  -0.000108  3.984167  0.0
C  C117  1  0.80717204  0.18210278  0.02007538  1  0.543111  5.9e-05  0.048242  0.095969  -0.000108  3.984393  0.0
C  C118  1  0.87457023  0.83956485  0.54304856  1  1.532775  -0.00129  0.193787  0.557031  -0.001989  4.247316  -0.003
C  C119  1  0.12542485  0.66043382  0.04303407  1  1.532337  -0.00129  0.193956  0.557158  -0.00199  4.24712  -0.003
C  C120  1  0.12541871  0.16043337  0.45694897  1  1.532075  -0.001291  0.193794  0.557053  -0.001989  4.247098  -0.003
C  C121  1  0.87456945  0.33955909  0.95695146  1  1.532427  -0.001289  0.193786  0.55689  -0.001989  4.247387  -0.003
C  C122  1  0.81068083  0.74120772  0.53830534  1  -0.032996  0.009554  -0.023734  -0.093978  0.00672  3.974971  0.008
C  C123  1  0.18930498  0.75879389  0.03828999  1  -0.033903  0.009553  -0.023834  -0.09399  0.006719  3.975354  0.008
C  C124  1  0.18929962  0.25879462  0.46169919  1  -0.03435  0.009554  -0.023765  -0.093716  0.006719  3.974705  0.008
C  C125  1  0.81068315  0.24120054  0.96170204  1  -0.033439  0.009554  -0.023801  -0.093821  0.00672  3.974948  0.008
C  C126  1  0.69327583  0.55996292  0.52413932  1  0.467132  -0.000499  0.119597  0.208723  -0.00064  3.993958  0.0
C  C127  1  0.30671153  0.94003313  0.02412872  1  0.467477  -0.000499  0.119561  0.208876  -0.000641  3.993608  0.0
C  C128  1  0.30670003  0.44004153  0.47587072  1  0.464781  -0.000499  0.119535  0.20896  -0.00064  3.993547  0.0
C  C129  1  0.69328710  0.05995306  0.97587632  1  0.464363  -0.000498  0.119607  0.208951  -0.00064  3.99356  0.0
C  C130  1  0.69257422  0.61371127  0.58475935  1  -0.047787  0.000913  -0.087092  -0.165907  0.000556  3.947251  0.001
C  C131  1  0.30742297  0.88627761  0.08474163  1  -0.049971  0.000913  -0.086919  -0.165638  0.000556  3.94669  0.001
C  C132  1  0.30740261  0.38629772  0.41524918  1  -0.048092  0.000913  -0.086877  -0.165784  0.000556  3.94709  0.001
C  C133  1  0.69258101  0.11369319  0.91525740  1  -0.048481  0.000913  -0.086915  -0.165649  0.000556  3.946975  0.001
C  C134  1  0.75086967  0.70543219  0.59139081  1  0.037826  0.00073  -0.065659  -0.035974  0.000293  3.948775  0.001
C  C135  1  0.24912409  0.79456014  0.09137147  1  0.039343  0.000728  -0.06579  -0.03612  0.000293  3.949198  0.001
C  C136  1  0.24910694  0.29457915  0.40861423  1  0.03825  0.00073  -0.065626  -0.036094  0.000293  3.948921  0.001
C  C137  1  0.75087281  0.20541462  0.90862106  1  0.038571  0.00073  -0.06568  -0.036183  0.000293  3.949035  0.001
C  C138  1  0.62716266  0.46636998  0.51118712  1  0.000565  0.000327  -0.012283  0.028285  5.5e-05  4.004364  0.0
C  C139  1  0.37282801  0.03362295  0.01117870  1  0.000589  0.000327  -0.012361  0.02819  5.4e-05  4.004263  0.0
C  C140  1  0.37281428  0.53363279  0.48882392  1  0.000368  0.000327  -0.012403  0.028226  5.4e-05  4.00435  0.0
C  C141  1  0.62718040  0.96635508  0.98882834  1  -0.000108  0.000327  -0.012498  0.028163  5.4e-05  4.004365  0.0
C  C142  1  0.61912990  0.42825315  0.44576029  1  -0.020983  -0.000339  -0.080304  -0.120306  -0.00052  3.933259  0.0
C  C143  1  0.38086660  0.07173789  0.94575428  1  -0.021268  -0.000339  -0.080307  -0.12035  -0.000519  3.933398  0.0
C  C144  1  0.38085266  0.57174894  0.55425025  1  -0.02118  -0.000338  -0.08026  -0.120471  -0.000519  3.933511  0.0
C  C145  1  0.61914879  0.92823231  0.05425225  1  -0.020917  -0.000337  -0.080213  -0.12047  -0.000519  3.933784  0.0
C  C146  1  0.55243096  0.34511102  0.42944432  1  -0.056236  0.008345  -0.026509  -0.045199  0.005842  4.001299  0.006
C  C147  1  0.44756056  0.15488588  0.92944160  1  -0.05627  0.008347  -0.026411  -0.045027  0.005843  4.001516  0.006
C  C148  1  0.44755100  0.65489502  0.57056221  1  -0.055625  0.008348  -0.026354  -0.044999  0.005844  4.001185  0.006
C  C149  1  0.55245288  0.84508534  0.07056594  1  -0.05594  0.008346  -0.026472  -0.045296  0.005843  4.001635  0.006
C  C150  1  0.54555616  0.30824273  0.35852234  1  1.52191  -0.001057  0.189122  0.549058  -0.001605  4.224193  -0.003
C  C151  1  0.45443892  0.19175397  0.85852095  1  1.521817  -0.001057  0.189191  0.549096  -0.001603  4.224248  -0.003
C  C152  1  0.45444002  0.69176238  0.64148419  1  1.522022  -0.001057  0.189211  0.549028  -0.001604  4.224207  -0.003
C  C153  1  0.54557019  0.80822398  0.14148759  1  1.522404  -0.001058  0.18925  0.549118  -0.001604  4.223942  -0.003
C  C154  1  0.49228591  0.29827726  0.47915358  1  0.009559  0.001233  -0.072157  -0.094093  0.000529  3.926045  0.001
C  C155  1  0.50769260  0.20172725  0.97915331  1  0.009201  0.001234  -0.07235  -0.094406  0.00053  3.926112  0.001
C  C156  1  0.50768297  0.70173501  0.52084895  1  0.009408  0.001234  -0.072407  -0.09423  0.00053  3.926124  0.001
C  C157  1  0.49230997  0.79825380  0.02085773  1  0.009686  0.001234  -0.072495  -0.09424  0.00053  3.926033  0.001
C  C158  1  0.50153504  0.33283795  0.54513080  1  -0.017476  0.01029  -0.022381  -0.036885  0.007096  3.975223  0.008
C  C159  1  0.49844508  0.16715985  0.04512757  1  -0.0176  0.010291  -0.022205  -0.03665  0.007096  3.974748  0.008
C  C160  1  0.49843628  0.66716549  0.45487373  1  -0.017098  0.010287  -0.022273  -0.036918  0.007095  3.975035  0.008
C  C161  1  0.50155516  0.83282381  0.95488347  1  -0.017414  0.010289  -0.022234  -0.037035  0.007096  3.975115  0.008
C  C162  1  0.44035627  0.27859943  0.59910842  1  1.562101  -0.000987  0.195204  0.554378  -0.001502  4.223289  -0.003
C  C163  1  0.55962668  0.22139290  0.09910609  1  1.562928  -0.000987  0.195131  0.554286  -0.001502  4.223268  -0.003
C  C164  1  0.55962111  0.72139863  0.40089662  1  1.561937  -0.000985  0.195238  0.554516  -0.001503  4.223241  -0.003
C  C165  1  0.44036486  0.77859725  0.90090645  1  1.562197  -0.000985  0.195012  0.554208  -0.001501  4.22316  -0.003
C  C166  1  0.56870116  0.41644295  0.56090892  1  -0.111058  -0.000247  -0.079245  -0.123609  -0.000473  3.920053  0.0
C  C167  1  0.43128295  0.08355062  0.06090190  1  -0.110868  -0.000246  -0.079243  -0.123637  -0.000473  3.919757  0.0
C  C168  1  0.43127195  0.58355873  0.43909962  1  -0.111036  -0.000246  -0.079153  -0.123512  -0.000473  3.919988  0.0
C  C169  1  0.56872195  0.91642783  0.93910614  1  -0.110608  -0.000246  -0.078982  -0.123293  -0.000473  3.919852  0.0
C  C170  1  0.81163326  0.00751922  0.43240663  1  0.940056  -0.000929  0.146942  0.096981  -0.00122  3.880331  0.0
C  C171  1  0.18836923  0.49247434  0.93239021  1  0.940092  -0.000928  0.146759  0.096729  -0.001221  3.880559  0.0
C  C172  1  0.18834666  0.99247388  0.56759991  1  0.940424  -0.000927  0.147146  0.097181  -0.001222  3.880503  0.0
C  C173  1  0.81164409  0.50751318  0.06759731  1  0.940723  -0.000927  0.146907  0.096845  -0.001219  3.88058  0.0
C  C174  1  0.77265383  0.16292441  0.45035225  1  0.251259  0.00332  0.001116  -0.116277  0.002129  3.930131  0.002
C  C175  1  0.22737319  0.33708207  0.95033842  1  0.251207  0.00332  0.001228  -0.115997  0.002129  3.930083  0.002
C  C176  1  0.22734873  0.83707682  0.54965629  1  0.251054  0.00332  0.001032  -0.116375  0.002129  3.930279  0.002
C  C177  1  0.77264867  0.66290830  0.04964911  1  0.251754  0.00332  0.00115  -0.116164  0.002129  3.930029  0.002
C  C178  1  0.86305219  0.15548291  0.47590031  1  0.422705  0.000738  -0.000957  -0.034072  0.000408  4.004072  0.001
C  C179  1  0.13697189  0.34451267  0.97589026  1  0.446873  0.000735  -0.00099  -0.034433  0.000408  4.004642  0.001
C  C180  1  0.13695404  0.84450857  0.52409923  1  0.423237  0.000739  -0.001004  -0.034327  0.000409  4.004501  0.001
C  C181  1  0.86305008  0.65547148  0.02409726  1  0.422557  0.000737  -0.000885  -0.034109  0.000408  4.00393  0.001
C  C182  1  0.64564026  0.03626456  0.39574013  1  0.263702  0.000878  -0.044882  -0.111569  0.000653  3.8723  0.001
C  C183  1  0.35437382  0.46375009  0.89572005  1  0.263621  0.000878  -0.044993  -0.1114  0.000653  3.872006  0.001
C  C184  1  0.35433656  0.96375452  0.60427892  1  0.263583  0.000877  -0.044888  -0.111177  0.000652  3.871998  0.001
C  C185  1  0.64564345  0.53624239  0.10426648  1  0.263439  0.000878  -0.044809  -0.111075  0.000653  3.871843  0.001
C  C186  1  0.57123500  0.01908536  0.45063714  1  -0.115629  0.000193  -0.018707  0.087519  0.000126  3.972169  0.0
C  C187  1  0.42877196  0.48093210  0.95061539  1  -0.114572  0.000193  -0.018613  0.087409  0.000126  3.972372  0.0
C  C188  1  0.42874116  0.98095087  0.54938491  1  -0.112834  0.000192  -0.018566  0.087504  0.000126  3.971879  0.0
C  C189  1  0.57124633  0.51905172  0.04937063  1  -0.111785  0.000193  -0.018696  0.087044  0.000126  3.972294  0.0
C  C190  1  0.59028932  0.96716776  0.50919382  1  -0.062158  2.9e-05  -0.094233  -0.123213  2e-06  3.989401  0.0
C  C191  1  0.40970904  0.53284943  0.00917537  1  -0.062574  2.9e-05  -0.094198  -0.123202  2e-06  3.98928  0.0
C  C192  1  0.40968360  0.03286343  0.49082572  1  -0.064017  2.9e-05  -0.09424  -0.123046  2e-06  3.989081  0.0
C  C193  1  0.59030893  0.46713288  0.99081065  1  -0.063978  2.9e-05  -0.094311  -0.123063  2e-06  3.9891  0.0
C  C194  1  0.48043108  0.05182117  0.44182660  1  0.014893  0.000171  -0.098417  -0.143101  0.000122  3.992897  0.0
C  C195  1  0.51957141  0.44818425  0.94180725  1  0.014585  0.000171  -0.098473  -0.143021  0.000122  3.993111  0.0
C  C196  1  0.51954216  0.94821153  0.55819495  1  0.014698  0.000171  -0.098387  -0.143027  0.000122  3.992891  0.0
C  C197  1  0.48044532  0.55179898  0.05817928  1  0.014703  0.000171  -0.098549  -0.143006  0.000122  3.993036  0.0
C  C198  1  0.58977161  0.14379892  0.67108961  1  1.009815  0.000449  0.143274  0.095067  -0.000114  3.91241  0.001
C  C199  1  0.41022874  0.35619819  0.17108943  1  1.010177  0.000446  0.143279  0.095192  -0.000117  3.912505  0.001
C  C200  1  0.41022572  0.85618122  0.32892143  1  1.01  0.00045  0.14352  0.095555  -0.000114  3.911864  0.001
C  C201  1  0.58977862  0.64381877  0.82891711  1  1.009502  0.000448  0.143535  0.095495  -0.000116  3.911938  0.001
C  C202  1  0.60929715  0.99720340  0.71950890  1  0.325673  0.003328  0.010879  -0.091816  0.002217  3.893113  0.002
C  C203  1  0.39072614  0.50280674  0.21950993  1  0.326374  0.003327  0.010951  -0.091717  0.002217  3.893084  0.002
C  C204  1  0.39068867  0.00276338  0.28048613  1  0.327543  0.003326  0.010714  -0.092154  0.002217  3.893371  0.002
C  C205  1  0.60931293  0.49723045  0.78048060  1  0.325699  0.003327  0.010943  -0.091821  0.002217  3.893319  0.002
C  C206  1  0.52422088  0.02919629  0.74088691  1  0.37125  0.001951  0.001165  -0.024721  0.001391  3.969842  0.002
C  C207  1  0.47578352  0.47078834  0.24089628  1  0.371654  0.00195  0.001017  -0.025169  0.001391  3.970131  0.002
C  C208  1  0.47576328  0.97076603  0.25910762  1  0.371042  0.001952  0.001065  -0.025212  0.00139  3.970138  0.002
C  C209  1  0.52424480  0.52923229  0.75910175  1  0.370425  0.001955  0.001061  -0.025189  0.00139  3.970315  0.002
C  C210  1  0.74390658  0.07488238  0.64305374  1  0.269628  0.000839  -0.042547  -0.114407  0.000634  3.87872  0.001
C  C211  1  0.25611817  0.42515304  0.14304659  1  0.268856  0.00084  -0.042554  -0.113838  0.000635  3.87793  0.001
C  C212  1  0.25608799  0.92509499  0.35695380  1  0.269575  0.00084  -0.042466  -0.114446  0.000634  3.87898  0.001
C  C213  1  0.74390786  0.57489736  0.85694894  1  0.269206  0.00084  -0.042549  -0.114483  0.000635  3.878925  0.001
C  C214  1  0.82444213  0.13074589  0.68435997  1  -0.030875  0.000211  -0.013393  0.090607  0.000147  3.962115  0.0
C  C215  1  0.17556674  0.36929971  0.18434918  1  -0.030117  0.000211  -0.013422  0.09046  0.000147  3.961809  0.0
C  C216  1  0.17555499  0.86922652  0.31564857  1  -0.030681  0.000211  -0.01346  0.090511  0.000147  3.962239  0.0
C  C217  1  0.82444924  0.63075422  0.81564185  1  -0.030924  0.000211  -0.013314  0.090815  0.000147  3.962176  0.0
C  C218  1  0.91756517  0.10127331  0.67969608  1  -0.032582  0.000143  -0.094369  -0.130018  2.6e-05  3.969512  0.0
C  C219  1  0.08244124  0.39876666  0.17968688  1  -0.042384  0.000143  -0.094406  -0.130161  2.6e-05  3.970144  0.0
C  C220  1  0.08243243  0.89870136  0.32030796  1  -0.032883  0.000143  -0.094227  -0.129589  2.6e-05  3.969566  0.0
C  C221  1  0.91756757  0.60126719  0.82029264  1  -0.032639  0.000143  -0.094401  -0.130005  2.6e-05  3.96965  0.0
C  C222  1  0.99287777  0.15108109  0.71724981  1  -0.074108  0.000106  -0.097688  -0.134391  6.7e-05  4.005772  0.0
C  C223  1  0.00712288  0.34896589  0.21724149  1  -0.052174  0.000105  -0.097887  -0.134755  6.7e-05  4.006154  0.0
C  C224  1  0.00712594  0.84889518  0.28274872  1  -0.073254  0.000106  -0.097704  -0.134649  6.7e-05  4.005649  0.0
C  C225  1  0.99287982  0.65106637  0.78273002  1  -0.073864  0.000106  -0.097842  -0.134918  6.7e-05  4.005601  0.0
C  C226  1  0.97681189  0.23129213  0.76008885  1  -0.032505  6.8e-05  -0.020621  0.076744  3e-05  3.993495  0.0
C  C227  1  0.02318495  0.26876218  0.26008130  1  -0.055324  6.8e-05  -0.02027  0.07721  3e-05  3.993522  0.0
C  C228  1  0.02319527  0.76868682  0.23990818  1  -0.032885  6.8e-05  -0.02063  0.076755  3e-05  3.993274  0.0
C  C229  1  0.97681829  0.73127932  0.73989872  1  -0.032659  6.8e-05  -0.020513  0.076788  3e-05  3.993112  0.0
C  C230  1  0.05536724  0.28180104  0.80499856  1  0.273488  0.001051  -0.040547  -0.106183  0.000772  3.898305  0.001
C  C231  1  0.94462664  0.21824288  0.30498820  1  0.272729  0.00105  -0.040532  -0.106403  0.000772  3.898248  0.001
C  C232  1  0.94463900  0.71819044  0.19499497  1  0.273704  0.00105  -0.040424  -0.106019  0.000772  3.897878  0.001
C  C233  1  0.05538126  0.78178332  0.69498882  1  0.272833  0.00105  -0.040359  -0.105744  0.000772  3.897855  0.001
C  C234  1  0.22535294  0.24802681  0.78212009  1  0.957194  -0.00147  0.137872  0.079651  -0.001741  3.933779  0.0
C  C235  1  0.77463946  0.25197606  0.28211031  1  0.957594  -0.001471  0.13791  0.079697  -0.001741  3.933424  0.0
C  C236  1  0.77465627  0.75196509  0.21788245  1  0.957523  -0.001469  0.137859  0.079525  -0.00174  3.933634  0.0
C  C237  1  0.22536676  0.74803559  0.71787622  1  0.95732  -0.00147  0.137836  0.079491  -0.001741  3.933524  0.0
C  C238  1  0.26346709  0.35312449  0.69948313  1  0.41083  0.000621  0.006883  -0.007219  0.000255  3.969864  0.001
C  C239  1  0.73655853  0.14688500  0.19946058  1  0.409738  0.000624  0.006957  -0.006715  0.000256  3.969924  0.001
C  C240  1  0.73656059  0.64688303  0.30053091  1  0.409505  0.000623  0.006807  -0.007122  0.000256  3.969795  0.001
C  C241  1  0.26344261  0.85312649  0.80052694  1  0.409807  0.000623  0.00688  -0.006963  0.000256  3.969595  0.001
C  C242  1  0.17153480  0.36675848  0.71892639  1  0.281907  0.003238  0.001411  -0.109537  0.002109  3.911467  0.002
C  C243  1  0.82849461  0.13327279  0.21890012  1  0.283554  0.003236  0.001361  -0.11014  0.002109  3.912008  0.002
C  C244  1  0.82848873  0.63324644  0.28107914  1  0.283117  0.003237  0.001549  -0.109674  0.002109  3.911909  0.002
C  C245  1  0.17151247  0.86674962  0.78107840  1  0.2833  0.003237  0.001465  -0.109721  0.002109  3.911954  0.002
C  C246  1  0.88460007  0.26244901  0.76337333  1  -0.045579  8.4e-05  -0.09505  -0.134748  6.4e-05  3.995655  0.0
C  C247  1  0.11539708  0.23760639  0.26336568  1  -0.045913  8.4e-05  -0.095241  -0.134774  6.4e-05  3.995666  0.0
C  C248  1  0.11540612  0.73752540  0.23663120  1  -0.044765  8.4e-05  -0.095128  -0.134929  6.4e-05  3.995742  0.0
C  C249  1  0.88461079  0.76245008  0.73662885  1  -0.045707  8.4e-05  -0.095143  -0.134718  6.4e-05  3.995494  0.0
C  C250  1  0.80907311  0.21226199  0.72611280  1  -0.039984  6e-06  -0.098442  -0.140541  -1.1e-05  4.004677  0.0
C  C251  1  0.19092813  0.28778896  0.22610276  1  -0.041307  6e-06  -0.098345  -0.140438  -1.1e-05  4.004293  0.0
C  C252  1  0.19092736  0.78770923  0.27389724  1  -0.038821  6e-06  -0.098554  -0.140574  -1.1e-05  4.00464  0.0
C  C253  1  0.80908525  0.71227305  0.77389677  1  -0.038658  6e-06  -0.098488  -0.140612  -1.1e-05  4.004504  0.0
N  N254  1  0.88624813  0.05809980  0.46451023  1  -1.181799  0.076605  -0.380667  -0.297348  0.05108  3.663024  0.067
N  N255  1  0.11376007  0.44188872  0.96449822  1  -1.180862  0.0766  -0.380496  -0.296934  0.051075  3.663045  0.067
N  N256  1  0.11374347  0.94188723  0.53548830  1  -1.181748  0.076597  -0.380669  -0.297176  0.051076  3.663112  0.067
N  N257  1  0.88625612  0.55809535  0.03548981  1  -1.182291  0.076604  -0.380704  -0.297245  0.051079  3.662913  0.067
N  N258  1  0.74184573  0.06902493  0.42253541  1  -1.240085  0.002349  -0.236845  0.053157  0.001187  3.779966  0.002
N  N259  1  0.25816818  0.43097939  0.92251733  1  -1.239699  0.00235  -0.236708  0.052941  0.001187  3.779824  0.002
N  N260  1  0.25813910  0.93097766  0.57747863  1  -1.239948  0.002349  -0.236864  0.052883  0.001187  3.780048  0.002
N  N261  1  0.74184876  0.56901157  0.07746920  1  -1.239957  0.002349  -0.236874  0.052961  0.001188  3.780035  0.002
N  N262  1  0.75071904  0.59460280  0.47259586  1  -1.214799  0.000636  -0.323619  -0.316  0.000322  3.335573  0.001
N  N263  1  0.24925832  0.90540405  0.97258835  1  -1.214489  0.000636  -0.323744  -0.316294  0.000322  3.33549  0.001
N  N264  1  0.24925780  0.40539610  0.52741417  1  -1.21255  0.000636  -0.32365  -0.31617  0.000322  3.335614  0.001
N  N265  1  0.75072321  0.09460670  0.02741919  1  -1.211638  0.000636  -0.323717  -0.316248  0.000322  3.33565  0.001
N  N266  1  0.51317193  0.12101893  0.71031773  1  -1.188802  0.071222  -0.377187  -0.294192  0.047312  3.656705  0.061
N  N267  1  0.48681814  0.37895875  0.21032538  1  -1.189227  0.071224  -0.377237  -0.294226  0.047313  3.656876  0.061
N  N268  1  0.48681924  0.87895264  0.28968630  1  -1.188902  0.071225  -0.377288  -0.294225  0.047316  3.656475  0.061
N  N269  1  0.51319041  0.62105030  0.78968016  1  -1.187899  0.071223  -0.377351  -0.29426  0.047319  3.656505  0.061
N  N270  1  0.64984931  0.07062245  0.67546766  1  -1.248874  0.002862  -0.23991  0.043765  0.001552  3.797434  0.002
N  N271  1  0.35016857  0.42939318  0.17546319  1  -1.24956  0.00286  -0.239852  0.043665  0.00155  3.797094  0.002
N  N272  1  0.35014527  0.92935491  0.32453888  1  -1.248847  0.002862  -0.239777  0.044011  0.001551  3.797259  0.002
N  N273  1  0.64985461  0.57064049  0.82453434  1  -1.249029  0.002861  -0.239926  0.043759  0.001551  3.797396  0.002
N  N274  1  0.14864066  0.29999821  0.77135777  1  -1.230702  0.002175  -0.243456  0.040133  0.001079  3.807497  0.002
N  N275  1  0.85136557  0.20002590  0.27134133  1  -1.2309  0.002173  -0.243491  0.040512  0.001079  3.806823  0.002
N  N276  1  0.85136974  0.69999587  0.22864076  1  -1.231142  0.002174  -0.243576  0.040013  0.001079  3.807644  0.002
N  N277  1  0.14864400  0.79999466  0.72863768  1  -1.230983  0.002174  -0.243613  0.039996  0.001079  3.807618  0.002
N  N278  1  0.29611902  0.27899035  0.73936956  1  -1.21032  0.073967  -0.380756  -0.299458  0.049163  3.6736  0.065
N  N279  1  0.70388492  0.22100426  0.23935609  1  -1.21012  0.073967  -0.380857  -0.299691  0.04916  3.673771  0.065
N  N280  1  0.70389900  0.72100903  0.26064198  1  -1.209485  0.073964  -0.380797  -0.299477  0.049157  3.673472  0.065
N  N281  1  0.29611666  0.77900252  0.76063594  1  -1.210033  0.07397  -0.380762  -0.299491  0.049164  3.673223  0.065
O  O282  1  0.92942898  0.86187964  0.49130950  1  -1.113854  0.121404  -0.333896  -0.552548  0.07708  2.329048  0.11
O  O283  1  0.07056409  0.63810635  0.99129954  1  -1.114157  0.121408  -0.333934  -0.552574  0.077078  2.329041  0.11
O  O284  1  0.07056143  0.13810520  0.50868803  1  -1.114144  0.121407  -0.333882  -0.552511  0.077077  2.328984  0.11
O  O285  1  0.92944016  0.36187916  0.00868098  1  -1.113866  0.121398  -0.333885  -0.552534  0.077075  2.329244  0.11
O  O286  1  0.87295031  0.89479910  0.59406971  1  -1.185758  0.001239  -0.32473  -0.579968  -0.000346  2.197901  0.002
O  O287  1  0.12705371  0.60520314  0.09405262  1  -1.185424  0.001239  -0.324873  -0.580148  -0.000346  2.19796  0.002
O  O288  1  0.12704003  0.10520904  0.40592331  1  -1.185107  0.001239  -0.324838  -0.58018  -0.000346  2.197709  0.002
O  O289  1  0.87293729  0.39478784  0.90593240  1  -1.185649  0.001238  -0.324675  -0.57986  -0.000347  2.197784  0.002
O  O290  1  0.61088590  0.35270364  0.31830542  1  -1.118377  0.12136  -0.338737  -0.553524  0.076821  2.322209  0.109
O  O291  1  0.38910878  0.14729194  0.81830600  1  -1.118464  0.121365  -0.338827  -0.553653  0.076823  2.322213  0.109
O  O292  1  0.38911628  0.64729919  0.68170462  1  -1.118629  0.121367  -0.33877  -0.553587  0.076823  2.322497  0.109
O  O293  1  0.61089298  0.85269543  0.18170404  1  -1.1187  0.121363  -0.338788  -0.553666  0.07682  2.322205  0.109
O  O294  1  0.48179520  0.23928884  0.34023804  1  -1.167331  0.000705  -0.328375  -0.564345  -0.000647  2.15215  0.001
O  O295  1  0.51820151  0.26070571  0.84023599  1  -1.167132  0.000704  -0.328393  -0.564359  -0.000648  2.152163  0.001
O  O296  1  0.51820503  0.76071500  0.65976449  1  -1.167417  0.000704  -0.328439  -0.564353  -0.000648  2.152245  0.001
O  O297  1  0.48180511  0.73927408  0.15977205  1  -1.167936  0.000705  -0.328403  -0.564305  -0.000647  2.152349  0.001
O  O298  1  0.46621204  0.30798495  0.65954909  1  -1.118451  0.121516  -0.342734  -0.558784  0.076929  2.346063  0.109
O  O299  1  0.53378305  0.19199061  0.15954664  1  -1.118526  0.121522  -0.342748  -0.558747  0.076935  2.345989  0.109
O  O300  1  0.53379064  0.69198989  0.34045595  1  -1.118475  0.12151  -0.342795  -0.558838  0.076928  2.346034  0.109
O  O301  1  0.46620811  0.80800113  0.84046640  1  -1.117963  0.121507  -0.34283  -0.558709  0.076926  2.345867  0.109
O  O302  1  0.37397931  0.21048767  0.58554823  1  -1.174519  0.002539  -0.32237  -0.55411  0.000588  2.159758  0.003
O  O303  1  0.62599751  0.28951094  0.08554528  1  -1.174763  0.002539  -0.322329  -0.554056  0.000588  2.159778  0.003
O  O304  1  0.62598644  0.78952343  0.41445831  1  -1.174197  0.00254  -0.322387  -0.554153  0.000588  2.159919  0.003
O  O305  1  0.37398867  0.71048451  0.91446526  1  -1.174493  0.002538  -0.322194  -0.553981  0.000587  2.159702  0.003
