# generated using pymatgen
data_ZnH14C22N2O9
_symmetry_space_group_name_H-M   'P 1'
_cell_length_a   9.75194056
_cell_length_b   10.17012069
_cell_length_c   11.28451331
_cell_angle_alpha   87.12317364
_cell_angle_beta   72.00805188
_cell_angle_gamma   64.69693805
_symmetry_Int_Tables_number   1
_chemical_formula_structural   ZnH14C22N2O9
_chemical_formula_sum   'Zn2 H28 C44 N4 O18'
_cell_volume   957.96056721
_cell_formula_units_Z   2
loop_
 _symmetry_equiv_pos_site_id
 _symmetry_equiv_pos_as_xyz
  1  'x, y, z'
loop_
 _atom_site_type_symbol
 _atom_site_label
 _atom_site_symmetry_multiplicity
 _atom_site_fract_x
 _atom_site_fract_y
 _atom_site_fract_z
 _atom_site_occupancy
 _atom_site_hle17_bader_spin_density
 _atom_site_hle17_ddec_charge
 _atom_site_hle17_ddec_spin_density
 _atom_site_hle17_ddec_sum_bond_order
 _atom_site_hle17_magmom
 _atom_site_hse06_10hf_bader_spin_density
 _atom_site_hse06_10hf_ddec_charge
 _atom_site_hse06_10hf_ddec_spin_density
 _atom_site_hse06_10hf_ddec_sum_bond_order
 _atom_site_hse06_10hf_magmom
 _atom_site_hse06_bader_spin_density
 _atom_site_hse06_ddec_charge
 _atom_site_hse06_ddec_spin_density
 _atom_site_hse06_ddec_sum_bond_order
 _atom_site_hse06_magmom
 _atom_site_pbe_bader_spin_density
 _atom_site_pbe_cm5_charge
 _atom_site_pbe_ddec_charge
 _atom_site_pbe_ddec_spin_density
 _atom_site_pbe_ddec_sum_bond_order
 _atom_site_pbe_magmom
Zn  Zn0  1  0.53085263  0.64388769  0.76029227  1  0  1.076628  0  1.805953  0  0  0.895254  0  2.258882  0  0  0.942475  0  2.204568  0  0  0.694898  0.86125  0  2.296379  0
Zn  Zn1  1  0.46914588  0.35611251  0.23970689  1  0  1.076646  0  1.805863  0  0  0.895276  0  2.258788  0  0  0.942496  0  2.204475  0  0  0.694905  0.861268  0  2.296284  0
H  H2  1  0.19583031  0.83203650  0.97032165  1  0  0.084387  0  0.946053  0  0  0.089214  0  1.015535  0  0  0.091636  0  1.013394  0  0  0.11756  0.087235  0  1.017273  0
H  H3  1  0.80416711  0.16796370  0.02967868  1  0  0.084413  0  0.946083  0  0  0.089224  0  1.015569  0  0  0.091646  0  1.013426  0  0  0.11757  0.087245  0  1.017305  0
H  H4  1  0.06304943  0.08295009  0.08159352  1  0  0.113756  0  0.941368  0  0  0.125391  0  0.996537  0  0  0.128361  0  0.995936  0  0  0.111396  0.123136  0  0.997288  0
H  H5  1  0.93694805  0.91705229  0.91840315  1  0  0.113733  0  0.941409  0  0  0.125372  0  0.996571  0  0  0.128348  0  0.99597  0  0  0.111365  0.123118  0  0.997321  0
H  H6  1  0.20735054  0.24327557  0.02830731  1  0  0.092725  0  0.974909  0  0  0.10317  0  1.039542  0  0  0.104492  0  1.04021  0  0  0.103049  0.102135  0  1.0391  0
H  H7  1  0.79264802  0.75672680  0.97168997  1  0  0.092699  0  0.974947  0  0  0.103145  0  1.039586  0  0  0.104475  0  1.040228  0  0  0.103039  0.102111  0  1.039143  0
H  H8  1  0.45934846  0.26851737  0.90959081  1  0  0.118127  0  0.959246  0  0  0.12735  0  1.01988  0  0  0.130515  0  1.019033  0  0  0.105687  0.124839  0  1.020877  0
H  H9  1  0.54065215  0.73148064  0.09040788  1  0  0.118115  0  0.959307  0  0  0.127378  0  1.019888  0  0  0.130543  0  1.019041  0  0  0.105707  0.124867  0  1.020888  0
H  H10  1  0.73342968  0.15869877  0.75808610  1  0  0.108879  0  0.945768  0  0  0.120623  0  1.003866  0  0  0.123869  0  1.001555  0  0  0.110419  0.118319  0  1.005457  0
H  H11  1  0.26657093  0.84129924  0.24191526  1  0  0.108869  0  0.945781  0  0  0.120611  0  1.003882  0  0  0.123858  0  1.001571  0  0  0.110412  0.118307  0  1.005474  0
H  H12  1  0.96124871  0.94359044  0.61049796  1  0  0.120276  0  0.936023  0  0  0.130539  0  0.995646  0  0  0.133764  0  0.993173  0  0  0.114756  0.128142  0  0.997578  0
H  H13  1  0.03875298  0.05640756  0.38950133  1  0  0.120241  0  0.936044  0  0  0.130494  0  0.995679  0  0  0.133717  0  0.993199  0  0  0.114744  0.128098  0  0.997609  0
H  H14  1  0.06198604  0.69086955  0.51228812  1  0  0.11331  0  0.968504  0  0  0.120864  0  1.031616  0  0  0.124936  0  1.029408  0  0  0.107241  0.117748  0  1.033634  0
H  H15  1  0.93801667  0.30912627  0.48771188  1  0  0.11336  0  0.968459  0  0  0.120864  0  1.031622  0  0  0.124934  0  1.029415  0  0  0.107229  0.117747  0  1.033643  0
H  H16  1  0.87782988  0.56590150  0.56804746  1  0  0.078116  0  0.942267  0  0  0.088442  0  1.004451  0  0  0.090691  0  1.002262  0  0  0.117368  0.086745  0  1.006072  0
H  H17  1  0.12217016  0.43409541  0.43195410  1  0  0.078136  0  0.94225  0  0  0.088464  0  1.004427  0  0  0.090713  0  1.002238  0  0  0.117386  0.086766  0  1.006048  0
H  H18  1  0.66225533  0.75218868  0.38820060  1  0  0.116597  0  0.93782  0  0  0.125935  0  0.99948  0  0  0.129867  0  0.996709  0  0  0.109813  0.122738  0  1.002256  0
H  H19  1  0.33774489  0.24781696  0.61180319  1  0  0.11658  0  0.937757  0  0  0.125907  0  0.999446  0  0  0.129836  0  0.996676  0  0  0.109805  0.12271  0  1.002221  0
H  H20  1  0.99524079  0.24763380  0.77864518  1  0  0.400206  0  0.896316  0  0  0.366144  0  0.980006  0  0  0.379149  0  0.963371  0  0  0.299213  0.35704  0  0.989717  0
H  H21  1  0.00475946  0.75237184  0.22135151  1  0  0.400152  0  0.896359  0  0  0.366101  0  0.980047  0  0  0.379106  0  0.963427  0  0  0.299174  0.356997  0  0.989759  0
H  H22  1  0.02447698  0.50440294  0.77502526  1  0  0.11497  0  0.943347  0  0  0.122794  0  1.007061  0  0  0.126814  0  1.004241  0  0  0.112064  0.119767  0  1.009545  0
H  H23  1  0.97552096  0.49559616  0.22497409  1  0  0.11495  0  0.943362  0  0  0.122803  0  1.007045  0  0  0.126794  0  1.004263  0  0  0.11207  0.119775  0  1.009534  0
H  H24  1  0.66863885  0.39997230  0.34682556  1  0  0.404015  0  0.889593  0  0  0.370664  0  0.969305  0  0  0.384917  0  0.954675  0  0  0.301181  0.360666  0  0.979431  0
H  H25  1  0.33135749  0.60002790  0.65317594  1  0  0.404067  0  0.889599  0  0  0.370749  0  0.969253  0  0  0.385001  0  0.954617  0  0  0.301206  0.360751  0  0.979382  0
H  H26  1  0.73565746  0.38120529  0.73022630  1  0  0.41171  0  0.899346  0  0  0.379142  0  0.966073  0  0  0.390621  0  0.949402  0  0  0.289605  0.371172  0  0.977543  0
H  H27  1  0.26434264  0.61879381  0.26977337  1  0  0.411715  0  0.89934  0  0  0.379148  0  0.966065  0  0  0.390628  0  0.949395  0  0  0.28961  0.371178  0  0.977537  0
H  H28  1  0.67594272  0.37376239  0.61269473  1  0  0.436857  0  0.859735  0  0  0.405082  0  0.923927  0  0  0.416811  0  0.90691  0  0  0.293567  0.396805  0  0.935877  0
H  H29  1  0.32405954  0.62623670  0.38730348  1  0  0.436869  0  0.859716  0  0  0.405085  0  0.923922  0  0  0.416815  0  0.906904  0  0  0.293558  0.396808  0  0.935871  0
C  C30  1  0.25242820  0.90602655  0.94716072  1  0  0.16698  0  3.667419  0  0  0.130358  0  3.928846  0  0  0.139636  0  3.944063  0  0  0.062814  0.124791  0  3.917738  0
C  C31  1  0.74757087  0.09397473  0.05283736  1  0  0.166892  0  3.667418  0  0  0.130302  0  3.92882  0  0  0.13958  0  3.944038  0  0  0.0628  0.124735  0  3.917712  0
C  C32  1  0.17912622  0.04712385  0.00919385  1  0  -0.116825  0  3.720856  0  0  -0.12943  0  3.976268  0  0  -0.136387  0  3.997002  0  0  -0.080097  -0.125447  0  3.962485  0
C  C33  1  0.82087337  0.95287634  0.99080325  1  0  -0.116807  0  3.720771  0  0  -0.129413  0  3.976154  0  0  -0.136379  0  3.996899  0  0  -0.080106  -0.12543  0  3.96237  0
C  C34  1  0.25904440  0.13452481  0.98039564  1  0  -0.036774  0  3.676069  0  0  -0.065129  0  3.927715  0  0  -0.062559  0  3.947116  0  0  -0.063866  -0.066458  0  3.914353  0
C  C35  1  0.74095520  0.86547538  0.01960057  1  0  -0.036733  0  3.676017  0  0  -0.065101  0  3.927678  0  0  -0.062526  0  3.947083  0  0  -0.063841  -0.066432  0  3.914317  0
C  C36  1  0.50802913  0.16068923  0.86031293  1  0  -0.102772  0  3.702223  0  0  -0.126277  0  3.956806  0  0  -0.13063  0  3.980033  0  0  -0.08578  -0.123322  0  3.941564  0
C  C37  1  0.49197097  0.83930986  0.13968675  1  0  -0.102744  0  3.702306  0  0  -0.126276  0  3.956879  0  0  -0.130631  0  3.980114  0  0  -0.085788  -0.123323  0  3.941639  0
C  C38  1  0.65968314  0.09981237  0.77732450  1  0  -0.070668  0  3.722871  0  0  -0.095075  0  3.980915  0  0  -0.096598  0  4.001801  0  0  -0.075791  -0.094541  0  3.96691  0
C  C39  1  0.34031855  0.90018563  0.22267480  1  0  -0.070699  0  3.722896  0  0  -0.09511  0  3.980958  0  0  -0.096632  0  4.001843  0  0  -0.075802  -0.094573  0  3.966952  0
C  C40  1  0.88473479  0.88702375  0.63116171  1  0  -0.019301  0  3.621554  0  0  -0.046823  0  3.871033  0  0  -0.043212  0  3.887226  0  0  -0.051177  -0.049157  0  3.859788  0
C  C41  1  0.11526525  0.11297317  0.36883895  1  0  -0.019274  0  3.621603  0  0  -0.046778  0  3.871059  0  0  -0.043162  0  3.887247  0  0  -0.051162  -0.049111  0  3.859813  0
C  C42  1  0.94111128  0.74671145  0.57736319  1  0  -0.11653  0  3.717584  0  0  -0.13093  0  3.975979  0  0  -0.138216  0  3.996572  0  0  -0.083844  -0.125877  0  3.962028  0
C  C43  1  0.05888825  0.25328656  0.42263845  1  0  -0.116598  0  3.717685  0  0  -0.130955  0  3.976069  0  0  -0.138242  0  3.996663  0  0  -0.083845  -0.125904  0  3.962118  0
C  C44  1  0.84020341  0.67606560  0.60805265  1  0  0.144186  0  3.697877  0  0  0.111598  0  3.954489  0  0  0.118936  0  3.972656  0  0  0.055809  0.106971  0  3.941756  0
C  C45  1  0.15979560  0.32393350  0.39194908  1  0  0.144136  0  3.697878  0  0  0.111551  0  3.954466  0  0  0.118886  0  3.972628  0  0  0.055782  0.106925  0  3.941733  0
C  C46  1  0.41312878  0.08075113  0.89065335  1  0  0.030235  0  3.787768  0  0  0.04831  0  4.01763  0  0  0.046015  0  4.042164  0  0  0.000401  0.049692  0  4.000851  0
C  C47  1  0.58687131  0.91924797  0.10934632  1  0  0.030207  0  3.787752  0  0  0.048284  0  4.017627  0  0  0.045985  0  4.042164  0  0  0.00039  0.049666  0  4.000849  0
C  C48  1  0.72767067  0.95595289  0.71597450  1  0  0.028486  0  3.783123  0  0  0.042869  0  4.018968  0  0  0.040095  0  4.043308  0  0  0.003655  0.044985  0  4.001899  0
C  C49  1  0.27232993  0.04404512  0.28402597  1  0  0.028551  0  3.783007  0  0  0.042934  0  4.018875  0  0  0.040161  0  4.043212  0  0  0.003685  0.045046  0  4.001804  0
C  C50  1  0.47711382  0.93739872  0.83256086  1  0  0.123904  0  3.764355  0  0  0.117091  0  3.999616  0  0  0.12062  0  4.022464  0  0  0.11634  0.114858  0  3.983599  0
C  C51  1  0.52288627  0.06260037  0.16743969  1  0  0.123897  0  3.764352  0  0  0.117104  0  3.999627  0  0  0.120633  0  4.022476  0  0  0.116343  0.11487  0  3.983608  0
C  C52  1  0.63563253  0.87518422  0.74271744  1  0  0.126697  0  3.764095  0  0  0.120933  0  3.999312  0  0  0.12462  0  4.022449  0  0  0.117296  0.118354  0  3.983336  0
C  C53  1  0.36436756  0.12481487  0.25728312  1  0  0.126722  0  3.764102  0  0  0.120909  0  3.999396  0  0  0.124593  0  4.022532  0  0  0.117315  0.118332  0  3.983417  0
C  C54  1  0.59019100  0.86086509  0.43798531  1  0  -0.075963  0  3.683859  0  0  -0.115414  0  3.946641  0  0  -0.115042  0  3.964671  0  0  -0.079802  -0.115738  0  3.934848  0
C  C55  1  0.40981348  0.13913836  0.56202011  1  0  -0.076118  0  3.683903  0  0  -0.115598  0  3.946737  0  0  -0.115223  0  3.964766  0  0  -0.07989  -0.115923  0  3.934942  0
C  C56  1  0.43842544  0.89451773  0.52253151  1  0  -0.047926  0  3.698407  0  0  -0.03988  0  3.946427  0  0  -0.042627  0  3.964134  0  0  -0.002412  -0.03789  0  3.934109  0
C  C57  1  0.56157793  0.10548353  0.47746986  1  0  -0.047846  0  3.698458  0  0  -0.039755  0  3.946433  0  0  -0.042508  0  3.96415  0  0  -0.002293  -0.037764  0  3.934114  0
C  C58  1  0.38022258  0.77695350  0.53583007  1  0  0.698742  0  3.849774  0  0  0.641709  0  4.155797  0  0  0.677454  0  4.143487  0  0  0.23026  0.617245  0  4.163616  0
C  C59  1  0.61977965  0.22304559  0.46417347  1  0  0.698822  0  3.849632  0  0  0.641781  0  4.15564  0  0  0.677523  0  4.143334  0  0  0.230224  0.61732  0  4.163458  0
C  C60  1  0.34698882  0.03596096  0.58518348  1  0  -0.075289  0  3.732652  0  0  -0.064908  0  3.977238  0  0  -0.070161  0  3.998072  0  0  -0.01117  -0.061428  0  3.962925  0
C  C61  1  0.65301984  0.96403593  0.41481846  1  0  -0.0756  0  3.732602  0  0  -0.06525  0  3.977236  0  0  -0.070499  0  3.998063  0  0  -0.011334  -0.061772  0  3.962929  0
C  C62  1  0.18363939  0.07678261  0.67603408  1  0  0.644804  0  3.844129  0  0  0.595067  0  4.147147  0  0  0.627451  0  4.139227  0  0  0.222833  0.57306  0  4.151901  0
C  C63  1  0.81636907  0.92322847  0.32396287  1  0  0.644912  0  3.843984  0  0  0.595187  0  4.146968  0  0  0.627568  0  4.139053  0  0  0.222921  0.573182  0  4.151724  0
C  C64  1  0.77171800  0.46133942  0.90365938  1  0  0.680586  0  3.870417  0  0  0.620617  0  4.181069  0  0  0.655144  0  4.171512  0  0  0.22151  0.597052  0  4.186671  0
C  C65  1  0.22828205  0.53865749  0.09633951  1  0  0.68047  0  3.870386  0  0  0.620489  0  4.181098  0  0  0.655015  0  4.171543  0  0  0.221461  0.596924  0  4.186699  0
C  C66  1  0.88869735  0.47682774  0.95782377  1  0  -0.047045  0  3.686989  0  0  -0.039031  0  3.935478  0  0  -0.040245  0  3.951368  0  0  0.000719  -0.037819  0  3.924961  0
C  C67  1  0.11129899  0.52317246  0.04217684  1  0  -0.046998  0  3.686788  0  0  -0.03904  0  3.93538  0  0  -0.040254  0  3.951261  0  0  0.000699  -0.037827  0  3.924865  0
C  C68  1  0.01292781  0.50144973  0.87407260  1  0  -0.072386  0  3.684271  0  0  -0.108452  0  3.942808  0  0  -0.10721  0  3.958232  0  0  -0.073696  -0.110217  0  3.933464  0
C  C69  1  0.98707013  0.49854937  0.12592675  1  0  -0.072371  0  3.684172  0  0  -0.108439  0  3.942723  0  0  -0.107175  0  3.958154  0  0  -0.073701  -0.110204  0  3.933381  0
C  C70  1  0.87642881  0.47531600  0.08551848  1  0  -0.074251  0  3.730652  0  0  -0.063466  0  3.974595  0  0  -0.069221  0  3.994025  0  0  -0.006086  -0.059223  0  3.961851  0
C  C71  1  0.12356645  0.52468421  0.91448242  1  0  -0.074261  0  3.730473  0  0  -0.063455  0  3.974417  0  0  -0.06921  0  3.993857  0  0  -0.006096  -0.059211  0  3.961673  0
C  C72  1  0.74955150  0.44428217  0.17732249  1  0  0.664296  0  3.794467  0  0  0.609662  0  4.091064  0  0  0.644123  0  4.082186  0  0  0.240611  0.586198  0  4.096539  0
C  C73  1  0.25045024  0.55571802  0.82267670  1  0  0.664472  0  3.794439  0  0  0.609862  0  4.090999  0  0  0.644321  0  4.082122  0  0  0.240715  0.586397  0  4.096477  0
N  N74  1  0.39627615  0.85363489  0.86087118  1  0  -0.35037  0  3.282963  0  0  -0.280094  0  3.555252  0  0  -0.298478  0  3.571269  0  0  -0.318386  -0.267721  0  3.543424  0
N  N75  1  0.60372394  0.14636421  0.13912938  1  0  -0.350295  0  3.28296  0  0  -0.280037  0  3.555239  0  0  -0.298422  0  3.571258  0  0  -0.31836  -0.267665  0  3.543411  0
N  N76  1  0.69248784  0.73838479  0.68844434  1  0  -0.361207  0  3.32408  0  0  -0.288833  0  3.590812  0  0  -0.307675  0  3.609585  0  0  -0.323164  -0.275911  0  3.577458  0
N  N77  1  0.30751220  0.26161212  0.31155810  1  0  -0.361187  0  3.324086  0  0  -0.288804  0  3.590845  0  0  -0.307633  0  3.609604  0  0  -0.32318  -0.275882  0  3.577488  0
O  O78  1  0.42440995  0.67926297  0.61166758  1  0  -0.653193  0  2.122125  0  0  -0.582054  0  2.378129  0  0  -0.611189  0  2.362665  0  0  -0.313979  -0.561207  0  2.387505  0
O  O79  1  0.57559230  0.32073612  0.38833330  1  0  -0.653314  0  2.122087  0  0  -0.582117  0  2.378058  0  0  -0.611252  0  2.362595  0  0  -0.314007  -0.561269  0  2.387432  0
O  O80  1  0.64871652  0.57623977  0.90673707  1  0  -0.597858  0  2.011029  0  0  -0.541313  0  2.264254  0  0  -0.567674  0  2.253994  0  0  -0.298695  -0.522171  0  2.270859  0
O  O81  1  0.35128024  0.42375497  0.09326455  1  0  -0.597847  0  2.011045  0  0  -0.541277  0  2.264271  0  0  -0.567637  0  2.254013  0  0  -0.29869  -0.522134  0  2.270872  0
O  O82  1  0.65721946  0.41465603  0.13954117  1  0  -0.569752  0  2.087869  0  0  -0.502679  0  2.338278  0  0  -0.526948  0  2.325954  0  0  -0.268737  -0.485765  0  2.346607  0
O  O83  1  0.34277744  0.58534526  0.86045924  1  0  -0.569858  0  2.088098  0  0  -0.502789  0  2.33849  0  0  -0.527052  0  2.326156  0  0  -0.2688  -0.485879  0  2.346827  0
O  O84  1  0.81443992  0.33689675  0.84733418  1  0  -0.625819  0  2.002683  0  0  -0.562134  0  2.220725  0  0  -0.588004  0  2.208551  0  0  -0.305539  -0.543597  0  2.228314  0
O  O85  1  0.18556070  0.66310125  0.15266452  1  0  -0.625738  0  2.002682  0  0  -0.562058  0  2.220741  0  0  -0.587929  0  2.208574  0  0  -0.305502  -0.543521  0  2.228331  0
O  O86  1  0.30496540  0.77178468  0.46596454  1  0  -0.594781  0  1.971876  0  0  -0.543085  0  2.191957  0  0  -0.568481  0  2.183835  0  0  -0.295031  -0.525132  0  2.196783  0
O  O87  1  0.69503429  0.22821988  0.53403057  1  0  -0.594704  0  1.971798  0  0  -0.543066  0  2.191948  0  0  -0.568442  0  2.18379  0  0  -0.294999  -0.525115  0  2.196773  0
O  O88  1  0.11050380  0.21694426  0.72032692  1  0  -0.572628  0  2.14046  0  0  -0.52114  0  2.368077  0  0  -0.545314  0  2.354889  0  0  -0.338626  -0.504144  0  2.375399  0
O  O89  1  0.88949749  0.78305920  0.27966959  1  0  -0.572577  0  2.140281  0  0  -0.521113  0  2.367896  0  0  -0.545278  0  2.354696  0  0  -0.338602  -0.504115  0  2.37522  0
O  O90  1  0.12459924  0.98947634  0.70592122  1  0  -0.548983  0  1.913623  0  0  -0.511156  0  2.128567  0  0  -0.530565  0  2.121666  0  0  -0.29057  -0.49783  0  2.132735  0
O  O91  1  0.87539760  0.01052276  0.29408197  1  0  -0.548934  0  1.913969  0  0  -0.511112  0  2.128903  0  0  -0.530516  0  2.121996  0  0  -0.290557  -0.49779  0  2.133074  0
O  O92  1  0.74567688  0.44758874  0.29436320  1  0  -0.528072  0  2.059062  0  0  -0.475484  0  2.271644  0  0  -0.498196  0  2.257687  0  0  -0.313029  -0.459651  0  2.281143  0
O  O93  1  0.25432223  0.55241472  0.70563654  1  0  -0.528142  0  2.059099  0  0  -0.475582  0  2.271654  0  0  -0.498297  0  2.257696  0  0  -0.313048  -0.459751  0  2.281156  0
O  O94  1  0.69105443  0.43925001  0.66567732  1  0  -0.841032  0  1.930553  0  0  -0.775959  0  2.140217  0  0  -0.79832  0  2.103189  0  0  -0.58055  -0.760612  0  2.165987  0
O  O95  1  0.30894515  0.56075018  0.33432333  1  0  -0.841029  0  1.930503  0  0  -0.775976  0  2.140201  0  0  -0.798337  0  2.103173  0  0  -0.580551  -0.76063  0  2.165971  0
