# generated using pymatgen
data_UH6Pb(C2O3)4
_symmetry_space_group_name_H-M   'P 1'
_cell_length_a   8.74595951
_cell_length_b   9.00182906
_cell_length_c   9.05488142
_cell_angle_alpha   105.78159465
_cell_angle_beta   108.86018862
_cell_angle_gamma   103.95674107
_symmetry_Int_Tables_number   1
_chemical_formula_structural   UH6Pb(C2O3)4
_chemical_formula_sum   'U2 H12 Pb2 C16 O24'
_cell_volume   605.30528549
_cell_formula_units_Z   2
loop_
 _symmetry_equiv_pos_site_id
 _symmetry_equiv_pos_as_xyz
  1  'x, y, z'
loop_
 _atom_site_type_symbol
 _atom_site_label
 _atom_site_symmetry_multiplicity
 _atom_site_fract_x
 _atom_site_fract_y
 _atom_site_fract_z
 _atom_site_occupancy
 _atom_site_hle17_bader_spin_density
 _atom_site_hle17_ddec_charge
 _atom_site_hle17_ddec_spin_density
 _atom_site_hle17_ddec_sum_bond_order
 _atom_site_hle17_magmom
 _atom_site_hse06_10hf_bader_spin_density
 _atom_site_hse06_10hf_ddec_charge
 _atom_site_hse06_10hf_ddec_spin_density
 _atom_site_hse06_10hf_ddec_sum_bond_order
 _atom_site_hse06_10hf_magmom
 _atom_site_hse06_bader_spin_density
 _atom_site_hse06_ddec_charge
 _atom_site_hse06_ddec_spin_density
 _atom_site_hse06_ddec_sum_bond_order
 _atom_site_hse06_magmom
 _atom_site_pbe_bader_spin_density
 _atom_site_pbe_cm5_charge
 _atom_site_pbe_ddec_charge
 _atom_site_pbe_ddec_spin_density
 _atom_site_pbe_ddec_sum_bond_order
 _atom_site_pbe_magmom
U  U0  1  0.15657437  0.36539667  0.25105127  1  0  2.519218  0  4.117832  0  0  2.583174  0  4.768227  0  0  2.695348  0  4.728764  0  0  2.18514  2.502242  0  4.798348  0
U  U1  1  0.84341782  0.63459461  0.74893901  1  0  2.519147  0  4.117932  0  0  2.583108  0  4.768281  0  0  2.695293  0  4.728824  0  0  2.185151  2.502099  0  4.798573  0
H  H2  1  0.64523888  0.26591164  0.99395192  1  0  0.436891  0  0.861215  0  0  0.402904  0  0.930514  0  0  0.414084  0  0.914514  0  0  0.300994  0.395001  0  0.941779  0
H  H3  1  0.35476654  0.73409581  0.00604582  1  0  0.436936  0  0.861132  0  0  0.403033  0  0.930324  0  0  0.414193  0  0.914338  0  0  0.301039  0.39513  0  0.941592  0
H  H4  1  0.75784526  0.25471031  0.88742698  1  0  0.435589  0  0.853626  0  0  0.406635  0  0.913026  0  0  0.417787  0  0.896822  0  0  0.308084  0.398686  0  0.924563  0
H  H5  1  0.24217026  0.74530831  0.11258693  1  0  0.435489  0  0.853719  0  0  0.406611  0  0.913004  0  0  0.417765  0  0.896795  0  0  0.308114  0.398664  0  0.924534  0
H  H6  1  0.01570404  0.08324089  0.76123911  1  0  0.085413  0  0.91056  0  0  0.091194  0  0.970871  0  0  0.093647  0  0.969059  0  0  0.12337  0.089432  0  0.972338  0
H  H7  1  0.98428810  0.91675038  0.23875668  1  0  0.085481  0  0.910478  0  0  0.091263  0  0.970783  0  0  0.093719  0  0.968966  0  0  0.123419  0.089491  0  0.97226  0
H  H8  1  0.07352529  0.16781371  0.49721635  1  0  0.087901  0  0.927819  0  0  0.091629  0  0.995754  0  0  0.094547  0  0.992682  0  0  0.123146  0.08962  0  0.998055  0
H  H9  1  0.92646417  0.83218002  0.50277372  1  0  0.087957  0  0.927838  0  0  0.091747  0  0.995699  0  0  0.094665  0  0.992639  0  0  0.12319  0.089739  0  0.997994  0
H  H10  1  0.42730400  0.38410831  0.78630126  1  0  0.126357  0  0.92385  0  0  0.138206  0  0.978819  0  0  0.140921  0  0.976738  0  0  0.121343  0.136375  0  0.980379  0
H  H11  1  0.57268333  0.61588293  0.21368856  1  0  0.126245  0  0.923878  0  0  0.138128  0  0.978805  0  0  0.140842  0  0.976736  0  0  0.121334  0.136297  0  0.980366  0
H  H12  1  0.31086427  0.39667393  0.98083429  1  0  0.111265  0  0.941089  0  0  0.118243  0  1.005894  0  0  0.120853  0  1.004617  0  0  0.122434  0.116506  0  1.00688  0
H  H13  1  0.68911685  0.60331356  0.01915034  1  0  0.111233  0  0.941044  0  0  0.118285  0  1.005811  0  0  0.12088  0  1.004519  0  0  0.122431  0.116546  0  1.006799  0
Pb  Pb14  1  0.44919320  0.92547460  0.72763627  1  0  1.452061  0  1.248676  0  0  1.268953  0  1.616897  0  0  1.331243  0  1.569381  0  0  0.716275  1.223367  0  1.650656  0
Pb  Pb15  1  0.55087218  0.07452956  0.27244371  1  0  1.451989  0  1.248581  0  0  1.268897  0  1.616803  0  0  1.331191  0  1.569284  0  0  0.716299  1.223309  0  1.650559  0
C  C16  1  0.15648033  0.13939550  0.80280601  1  0  0.051682  0  3.577318  0  0  0.031658  0  3.819004  0  0  0.03327  0  3.82449  0  0  0.015445  0.030352  0  3.81556  0
C  C17  1  0.84350885  0.86060070  0.19718243  1  0  0.05177  0  3.577011  0  0  0.031787  0  3.818754  0  0  0.033384  0  3.824207  0  0  0.015409  0.030492  0  3.815311  0
C  C18  1  0.20685380  0.18920143  0.58225168  1  0  0.047659  0  3.573826  0  0  0.019498  0  3.826608  0  0  0.0214  0  3.832156  0  0  0.008786  0.017985  0  3.822951  0
C  C19  1  0.79313685  0.81079230  0.41774208  1  0  0.047556  0  3.57387  0  0  0.019359  0  3.826692  0  0  0.021244  0  3.832247  0  0  0.008747  0.017847  0  3.823033  0
C  C20  1  0.28796182  0.36061039  0.72591270  1  0  -0.165275  0  3.577375  0  0  -0.17738  0  3.808814  0  0  -0.182022  0  3.817962  0  0  -0.079182  -0.174149  0  3.802511  0
C  C21  1  0.71202698  0.63937839  0.27408245  1  0  -0.165017  0  3.576914  0  0  -0.17702  0  3.808433  0  0  -0.1817  0  3.817583  0  0  -0.079109  -0.173795  0  3.802135  0
C  C22  1  0.21132462  0.33066374  0.85074715  1  0  -0.177863  0  3.582063  0  0  -0.195894  0  3.820484  0  0  -0.201683  0  3.830455  0  0  -0.076838  -0.191937  0  3.813641  0
C  C23  1  0.78866533  0.66933123  0.14924010  1  0  -0.177926  0  3.581754  0  0  -0.19611  0  3.820326  0  0  -0.201805  0  3.830176  0  0  -0.076834  -0.192148  0  3.813479  0
C  C24  1  0.24356819  0.10291924  0.95566289  1  0  0.699687  0  3.834218  0  0  0.652592  0  4.129017  0  0  0.690699  0  4.117099  0  0  0.244428  0.626381  0  4.136338  0
C  C25  1  0.75643428  0.89708693  0.04434131  1  0  0.699535  0  3.833995  0  0  0.652418  0  4.128824  0  0  0.690512  0  4.116937  0  0  0.244415  0.626194  0  4.136158  0
C  C26  1  0.30620489  0.15451717  0.47500553  1  0  0.669574  0  3.854775  0  0  0.623054  0  4.160067  0  0  0.658914  0  4.151568  0  0  0.234055  0.598384  0  4.164937  0
C  C27  1  0.69381610  0.84548670  0.52500062  1  0  0.66963  0  3.854366  0  0  0.62307  0  4.159721  0  0  0.658963  0  4.151165  0  0  0.234009  0.5984  0  4.164593  0
C  C28  1  0.28350463  0.51466711  0.68676452  1  0  0.744492  0  3.776446  0  0  0.702391  0  4.077955  0  0  0.741035  0  4.065871  0  0  0.25153  0.675681  0  4.085322  0
C  C29  1  0.71648293  0.48532785  0.31321755  1  0  0.744723  0  3.775973  0  0  0.702379  0  4.077827  0  0  0.741029  0  4.065745  0  0  0.251562  0.675668  0  4.085189  0
C  C30  1  0.05368598  0.37379014  0.85047146  1  0  0.731806  0  3.777631  0  0  0.694424  0  4.078577  0  0  0.733297  0  4.065072  0  0  0.248045  0.667586  0  4.086947  0
C  C31  1  0.94630706  0.62621347  0.14953456  1  0  0.731996  0  3.777009  0  0  0.694656  0  4.077955  0  0  0.733504  0  4.064438  0  0  0.248157  0.667817  0  4.086322  0
O  O32  1  0.34430092  0.50822976  0.25551028  1  0  -0.702179  0  1.617597  0  0  -0.709974  0  1.917426  0  0  -0.731047  0  1.903744  0  0  -0.756088  -0.697537  0  1.928115  0
O  O33  1  0.65569939  0.49176404  0.74449210  1  0  -0.702151  0  1.61752  0  0  -0.709886  0  1.917254  0  0  -0.73097  0  1.903577  0  0  -0.756083  -0.697437  0  1.927961  0
O  O34  1  0.96822410  0.21746067  0.24094223  1  0  -0.71077  0  1.600882  0  0  -0.71936  0  1.904544  0  0  -0.741025  0  1.891086  0  0  -0.754982  -0.706474  0  1.915085  0
O  O35  1  0.03176026  0.78252563  0.75903538  1  0  -0.71067  0  1.600937  0  0  -0.71933  0  1.90469  0  0  -0.741009  0  1.891244  0  0  -0.754993  -0.706429  0  1.915245  0
O  O36  1  0.19278586  0.14133717  0.07236671  1  0  -0.679663  0  2.097033  0  0  -0.665247  0  2.377024  0  0  -0.699966  0  2.370957  0  0  -0.365313  -0.639786  0  2.379955  0
O  O37  1  0.80719971  0.85865900  0.92761727  1  0  -0.679658  0  2.096678  0  0  -0.665217  0  2.376654  0  0  -0.69993  0  2.370594  0  0  -0.365334  -0.639742  0  2.379599  0
O  O38  1  0.36335065  0.04572766  0.96631703  1  0  -0.632217  0  2.100434  0  0  -0.549202  0  2.331056  0  0  -0.58253  0  2.32276  0  0  -0.255597  -0.525602  0  2.336052  0
O  O39  1  0.63665857  0.95428718  0.03370490  1  0  -0.63206  0  2.100438  0  0  -0.549064  0  2.331109  0  0  -0.582396  0  2.322834  0  0  -0.255541  -0.52546  0  2.33611  0
O  O40  1  0.34212357  0.25912861  0.40797163  1  0  -0.691163  0  2.121577  0  0  -0.668029  0  2.396911  0  0  -0.704675  0  2.393223  0  0  -0.366862  -0.641236  0  2.398195  0
O  O41  1  0.65785891  0.74086259  0.59201664  1  0  -0.691144  0  2.12144  0  0  -0.667981  0  2.396767  0  0  -0.704636  0  2.393063  0  0  -0.366796  -0.641179  0  2.398061  0
O  O42  1  0.34656167  0.02801377  0.45307667  1  0  -0.621039  0  1.975216  0  0  -0.561086  0  2.201981  0  0  -0.591621  0  2.195811  0  0  -0.272508  -0.539368  0  2.205575  0
O  O43  1  0.65349597  0.97202743  0.54696556  1  0  -0.621212  0  1.974818  0  0  -0.561225  0  2.201585  0  0  -0.591773  0  2.195395  0  0  -0.272541  -0.539507  0  2.205185  0
O  O44  1  0.22720745  0.50467512  0.53359703  1  0  -0.688287  0  2.070364  0  0  -0.678776  0  2.352578  0  0  -0.716675  0  2.345559  0  0  -0.377859  -0.650815  0  2.355969  0
O  O45  1  0.77278773  0.49532111  0.46640216  1  0  -0.688515  0  2.069962  0  0  -0.678933  0  2.352317  0  0  -0.71682  0  2.345256  0  0  -0.377941  -0.650957  0  2.355715  0
O  O46  1  0.34885653  0.65147242  0.80986699  1  0  -0.636904  0  1.998528  0  0  -0.584426  0  2.232822  0  0  -0.615454  0  2.224756  0  0  -0.279409  -0.562153  0  2.23766  0
O  O47  1  0.65113846  0.34852631  0.19011956  1  0  -0.636834  0  1.998395  0  0  -0.584312  0  2.232898  0  0  -0.615345  0  2.224842  0  0  -0.27939  -0.562044  0  2.237734  0
O  O48  1  0.99583516  0.33814523  0.95464537  1  0  -0.699261  0  2.074542  0  0  -0.673169  0  2.335634  0  0  -0.706753  0  2.328654  0  0  -0.336813  -0.648591  0  2.339086  0
O  O49  1  0.00415330  0.66185221  0.04533985  1  0  -0.699474  0  2.074125  0  0  -0.673372  0  2.33514  0  0  -0.706964  0  2.328169  0  0  -0.336922  -0.648787  0  2.3386  0
O  O50  1  0.98568015  0.43496022  0.74816522  1  0  -0.638408  0  2.030054  0  0  -0.617567  0  2.290239  0  0  -0.648876  0  2.281225  0  0  -0.343588  -0.594615  0  2.295362  0
O  O51  1  0.01431215  0.56504462  0.25183759  1  0  -0.638404  0  2.030002  0  0  -0.617551  0  2.29014  0  0  -0.648867  0  2.281161  0  0  -0.343556  -0.594615  0  2.295257  0
O  O52  1  0.20273518  0.07552408  0.66805540  1  0  -0.328393  0  2.281071  0  0  -0.262807  0  2.521551  0  0  -0.27923  0  2.523264  0  0  -0.192379  -0.250789  0  2.519952  0
O  O53  1  0.79725743  0.92446844  0.33193976  1  0  -0.328457  0  2.280986  0  0  -0.262889  0  2.5215  0  0  -0.279314  0  2.523215  0  0  -0.192357  -0.250865  0  2.519898  0
O  O54  1  0.63779896  0.21760650  0.87773244  1  0  -0.828252  0  1.84132  0  0  -0.761752  0  2.027223  0  0  -0.78559  0  1.993472  0  0  -0.54575  -0.744642  0  2.050834  0
O  O55  1  0.36222019  0.78240229  0.12227776  1  0  -0.828086  0  1.841212  0  0  -0.76174  0  2.026906  0  0  -0.785552  0  1.99322  0  0  -0.545787  -0.744633  0  2.050525  0
