# generated using pymatgen
data_MnH22C38(NO)4
_symmetry_space_group_name_H-M   'P 1'
_cell_length_a   10.68471916
_cell_length_b   13.36674558
_cell_length_c   13.36678527
_cell_angle_alpha   79.47273020
_cell_angle_beta   66.43898865
_cell_angle_gamma   66.43906511
_symmetry_Int_Tables_number   1
_chemical_formula_structural   MnH22C38(NO)4
_chemical_formula_sum   'Mn2 H44 C76 N8 O8'
_cell_volume   1603.41944085
_cell_formula_units_Z   2
loop_
 _symmetry_equiv_pos_site_id
 _symmetry_equiv_pos_as_xyz
  1  'x, y, z'
loop_
 _atom_site_type_symbol
 _atom_site_label
 _atom_site_symmetry_multiplicity
 _atom_site_fract_x
 _atom_site_fract_y
 _atom_site_fract_z
 _atom_site_occupancy
 _atom_site_hle17_ddec_charge
 _atom_site_hle17_ddec_spin_density
 _atom_site_hle17_ddec_sum_bond_order
 _atom_site_hle17_magmom
 _atom_site_hse06_10hf_ddec_charge
 _atom_site_hse06_10hf_ddec_spin_density
 _atom_site_hse06_10hf_ddec_sum_bond_order
 _atom_site_hse06_10hf_magmom
 _atom_site_hse06_ddec_charge
 _atom_site_hse06_ddec_spin_density
 _atom_site_hse06_ddec_sum_bond_order
 _atom_site_hse06_magmom
 _atom_site_pbe_cm5_charge
 _atom_site_pbe_ddec_charge
 _atom_site_pbe_ddec_spin_density
 _atom_site_pbe_ddec_sum_bond_order
 _atom_site_pbe_magmom
Mn  Mn0  1  0.37796743  0.12203538  0.12200289  1  0.738596  -1.646487  2.686884  -1.601  0.644533  -1.433967  3.212915  -1.384  0.659567  -1.248692  3.180341  -1.203  0.712516  0.625416  -1.471096  3.23392  -1.419
Mn  Mn1  1  0.87796474  0.62200626  0.62204246  1  0.738538  -1.6463  2.686742  -1.6  0.644427  -1.433794  3.21279  -1.384  0.659528  -1.24852  3.18018  -1.202  0.712505  0.625384  -1.47102  3.233744  -1.419
H  H2  1  0.26028380  0.12605865  0.94040525  1  0.091763  -3.1e-05  0.942427  0.0  0.101219  0.000525  1.001577  0.0  0.104552  0.000322  0.997297  0.0  0.125007  0.09878  0.000612  1.004727  0.0
H  H3  1  0.67327135  0.94062391  0.12607104  1  0.092248  -3.6e-05  0.942504  0.0  0.101275  0.000526  1.002069  0.0  0.104612  0.000323  0.997746  0.0  0.124969  0.098844  0.000649  1.005164  0.0
H  H4  1  0.76028727  0.44040760  0.62606026  1  0.091799  -3e-05  0.942409  0.0  0.101253  0.000525  1.001547  0.0  0.104593  0.000322  0.997259  0.0  0.125032  0.098814  0.000612  1.004693  0.0
H  H5  1  0.17327184  0.62606760  0.44062727  1  0.092269  -3.5e-05  0.942436  0.0  0.101257  0.000526  1.002042  0.0  0.104594  0.000322  0.997718  0.0  0.124978  0.098827  0.000649  1.005131  0.0
H  H6  1  0.19211566  0.26448648  0.79901166  1  0.103479  0.000183  0.946756  0.0  0.115269  4.4e-05  1.001464  0.0  0.117943  4e-06  1.001367  0.0  0.106486  0.113298  9.5e-05  1.001742  0.0
H  H7  1  0.74452634  0.79923682  0.26444762  1  0.104134  0.000186  0.946744  0.0  0.115829  4.3e-05  1.00153  0.0  0.118508  4e-06  1.001429  0.0  0.106815  0.113844  9.9e-05  1.001765  0.0
H  H8  1  0.69211240  0.29901676  0.76448760  1  0.10353  0.000183  0.946784  0.0  0.115353  4.4e-05  1.001454  0.0  0.118028  4e-06  1.001356  0.0  0.106507  0.113381  9.5e-05  1.001732  0.0
H  H9  1  0.24452867  0.76444308  0.29923756  1  0.10415  0.000186  0.946715  0.0  0.115846  4.3e-05  1.0015  0.0  0.118528  4e-06  1.001399  0.0  0.106811  0.113861  9.9e-05  1.001733  0.0
H  H10  1  0.19606025  0.45242650  0.79487635  1  0.118425  -0.000527  0.954981  -0.001  0.127533  0.000433  1.016408  0.0  0.13154  0.000221  1.013033  0.0  0.109583  0.124615  0.000509  1.018911  0.0
H  H11  1  0.55675318  0.79501056  0.45238779  1  0.118514  -0.000532  0.954421  -0.001  0.12749  0.000434  1.015991  0.0  0.131565  0.000221  1.012525  0.0  0.109488  0.124547  0.000513  1.018597  0.0
H  H12  1  0.69605292  0.29488363  0.95242726  1  0.118331  -0.000526  0.955128  -0.001  0.127463  0.000433  1.016525  0.0  0.131473  0.000221  1.013141  0.0  0.109554  0.124547  0.000509  1.019026  0.0
H  H13  1  0.05675601  0.95238437  0.29501223  1  0.118482  -0.000531  0.95443  -0.001  0.127477  0.000434  1.015981  0.0  0.131544  0.000221  1.012523  0.0  0.10947  0.124531  0.000513  1.018584  0.0
H  H14  1  0.23293730  0.58476035  0.88777107  1  0.113928  0.000275  0.931514  0.0  0.12746  0.000132  0.985914  0.0  0.130475  6.6e-05  0.98505  0.0  0.111614  0.125322  0.00016  0.98662  0.0
H  H15  1  0.29456245  0.88782087  0.58475131  1  0.114803  0.000273  0.931133  0.0  0.128006  0.000132  0.985838  0.0  0.131023  6.6e-05  0.984974  0.0  0.111425  0.125833  0.000152  0.986553  0.0
H  H16  1  0.73293740  0.38777487  0.08476050  1  0.113992  0.000275  0.931509  0.0  0.127537  0.000132  0.985896  0.0  0.130552  6.6e-05  0.985031  0.0  0.111631  0.125397  0.00016  0.986604  0.0
H  H17  1  0.79456456  0.08474877  0.38782055  1  0.1148  0.000272  0.931131  0.0  0.12798  0.000132  0.985861  0.0  0.130997  6.6e-05  0.984997  0.0  0.111423  0.12581  0.000152  0.986573  0.0
H  H18  1  0.36522593  0.54534936  0.20728991  1  0.091586  -0.000582  0.968544  -0.002  0.104153  0.000689  1.029168  0.0  0.107771  0.000395  1.0252  0.0  0.10422  0.101718  0.000739  1.031649  0.0
H  H19  1  0.88207786  0.20730513  0.54545833  1  0.091104  -0.000578  0.968041  -0.002  0.10335  0.000687  1.029242  0.0  0.107  0.000394  1.025161  0.0  0.103948  0.100971  0.000701  1.031553  0.0
H  H20  1  0.86523223  0.70729346  0.04534793  1  0.091681  -0.000581  0.968464  -0.002  0.104263  0.000689  1.029061  0.0  0.107884  0.000395  1.02509  0.0  0.104274  0.101826  0.000738  1.031542  0.0
H  H21  1  0.38208008  0.04545632  0.70730243  1  0.091176  -0.000578  0.968032  -0.002  0.103342  0.000687  1.029308  0.0  0.10699  0.000394  1.025229  0.0  0.103953  0.100966  0.000701  1.031619  0.0
H  H22  1  0.44406710  0.38105436  0.32481886  1  0.108498  0.000285  0.947423  0.0  0.119418  -1.3e-05  1.002355  0.0  0.122124  -8.9e-05  1.002145  0.0  0.109359  0.117542  7.7e-05  1.002492  0.0
H  H23  1  0.84992041  0.32485676  0.38118647  1  0.107737  0.000284  0.948736  0.0  0.118931  -1.2e-05  1.003259  0.0  0.121636  -8.7e-05  1.003052  0.0  0.109319  0.117028  7.7e-05  1.003413  0.0
H  H24  1  0.94407203  0.82482297  0.88105391  1  0.108493  0.000285  0.947375  0.0  0.119435  -1.3e-05  1.002295  0.0  0.122141  -8.9e-05  1.002086  0.0  0.109382  0.11756  7.7e-05  1.002431  0.0
H  H25  1  0.34991916  0.88118712  0.82485604  1  0.107746  0.000284  0.948737  0.0  0.118942  -1.2e-05  1.003263  0.0  0.121645  -8.8e-05  1.003055  0.0  0.10932  0.117036  7.7e-05  1.003421  0.0
H  H26  1  0.46234228  0.20046862  0.28396469  1  0.087238  9.2e-05  0.926946  -0.001  0.095027  0.000866  0.990261  0.0  0.097307  0.000557  0.987011  0.0  0.124599  0.093528  0.000896  0.99223  0.0
H  H27  1  0.05299939  0.28401826  0.20055064  1  0.087524  9.1e-05  0.925915  -0.001  0.09518  0.000861  0.989349  0.0  0.097445  0.000555  0.986096  0.0  0.124306  0.093632  0.000875  0.991419  0.0
H  H28  1  0.96234215  0.78396891  0.70046911  1  0.087275  9.2e-05  0.926911  -0.001  0.095043  0.000866  0.990258  0.0  0.097323  0.000557  0.987007  0.0  0.12461  0.093545  0.000896  0.992221  0.0
H  H29  1  0.55299966  0.70055016  0.78402095  1  0.087571  9.2e-05  0.925835  -0.001  0.09526  0.00086  0.989241  0.0  0.097526  0.000554  0.985988  0.0  0.124333  0.093709  0.000875  0.991312  0.0
H  H30  1  0.06081259  0.72206572  0.05252832  1  0.081037  9.3e-05  0.981455  0.0  0.091827  5.9e-05  1.045925  0.0  0.093237  3.4e-05  1.046601  0.0  0.094315  0.090728  5.7e-05  1.045617  0.0
H  H31  1  0.16454643  0.05255394  0.72213645  1  0.081604  9.3e-05  0.981276  0.0  0.092441  5.9e-05  1.045613  0.0  0.093839  3.4e-05  1.046308  0.0  0.094321  0.091297  4.2e-05  1.045331  0.0
H  H32  1  0.56081776  0.55253386  0.22206490  1  0.080968  9.3e-05  0.981433  0.0  0.091752  5.9e-05  1.045908  0.0  0.093171  3.4e-05  1.046581  0.0  0.094292  0.090653  5.7e-05  1.045599  0.0
H  H33  1  0.66454456  0.22213282  0.55255335  1  0.081636  9.4e-05  0.981254  0.0  0.092465  5.9e-05  1.0456  0.0  0.093862  3.4e-05  1.046292  0.0  0.094329  0.09132  4.3e-05  1.04532  0.0
H  H34  1  0.03301362  0.91202626  0.08065360  1  0.108633  6.6e-05  0.939803  0.0  0.118455  0.000137  0.997906  0.0  0.12237  8.1e-05  0.995427  0.0  0.106513  0.115513  0.000154  0.999944  0.0
H  H35  1  0.97417573  0.08059099  0.91211623  1  0.109236  6.6e-05  0.93758  0.0  0.118843  0.000137  0.995981  0.0  0.122769  8.1e-05  0.993482  0.0  0.106663  0.115767  0.000134  0.998132  0.0
H  H36  1  0.53302042  0.58066070  0.41202368  1  0.108699  6.6e-05  0.939778  0.0  0.118523  0.000137  0.997872  0.0  0.12244  8.1e-05  0.995391  0.0  0.106558  0.115581  0.000154  0.999909  0.0
H  H37  1  0.47417221  0.41211093  0.58059364  1  0.109127  6.6e-05  0.937624  0.0  0.118736  0.000137  0.996041  0.0  0.122662  8.1e-05  0.993541  0.0  0.106605  0.115658  0.000134  0.998193  0.0
H  H38  1  0.48345522  0.79532250  0.04863143  1  0.109125  0.000172  0.940399  0.0  0.117452  0.000215  1.001112  0.0  0.121424  0.000166  0.998902  0.0  0.105333  0.114563  0.000202  1.002787  0.0
H  H39  1  0.67262394  0.04851885  0.79527465  1  0.107891  0.000171  0.94137  0.0  0.116228  0.000216  1.002265  0.0  0.12028  0.000167  0.999976  0.0  0.104578  0.113319  0.000183  1.003968  0.0
H  H40  1  0.98346600  0.54862809  0.29532047  1  0.109254  0.000171  0.940438  0.0  0.117563  0.000215  1.001145  0.0  0.121536  0.000166  0.998934  0.0  0.105394  0.114673  0.000203  1.002819  0.0
H  H41  1  0.17262099  0.29527086  0.54852036  1  0.107836  0.000172  0.941435  0.0  0.116169  0.000215  1.002336  0.0  0.120223  0.000167  1.000046  0.0  0.104546  0.11326  0.000183  1.004038  0.0
H  H42  1  0.51134159  0.60544884  0.02457396  1  0.083552  0.000268  0.994463  0.0  0.089318  0.000355  1.067375  0.0  0.090592  0.000196  1.069315  0.0  0.091683  0.088329  0.000402  1.066313  0.0
H  H43  1  0.85868096  0.02468148  0.60538781  1  0.081459  0.000267  0.994663  0.0  0.087297  0.000355  1.067766  0.0  0.088534  0.000195  1.069754  0.0  0.091089  0.08635  0.000395  1.066669  0.0
H  H44  1  0.01135100  0.52456921  0.10544789  1  0.083505  0.000268  0.994473  0.0  0.08928  0.000355  1.067385  0.0  0.090554  0.000196  1.069296  0.0  0.091683  0.08829  0.000402  1.066323  0.0
H  H45  1  0.35868043  0.10538377  0.52468189  1  0.081391  0.000267  0.994758  0.0  0.087239  0.000355  1.067851  0.0  0.08847  0.000195  1.069849  0.0  0.091075  0.086293  0.000395  1.066753  0.0
C  C46  1  0.26075197  0.20786997  0.93664417  1  0.141659  0.023446  3.640546  0.014  0.107028  0.013756  3.896309  0.006  0.120294  0.009451  3.903326  0.005  0.058096  0.097867  0.012782  3.891461  0.005
C  C47  1  0.59473473  0.93682487  0.20786554  1  0.141881  0.02369  3.643255  0.014  0.107465  0.013823  3.898918  0.006  0.120882  0.009467  3.905924  0.005  0.058129  0.097865  0.014112  3.894173  0.006
C  C48  1  0.76075130  0.43665078  0.70787001  1  0.141748  0.023437  3.64049  0.014  0.107148  0.01375  3.896259  0.006  0.120416  0.009445  3.903279  0.005  0.058117  0.097984  0.012778  3.891401  0.005
C  C49  1  0.09473610  0.70786261  0.43682892  1  0.141893  0.02367  3.64324  0.014  0.107504  0.013812  3.898876  0.006  0.120924  0.009455  3.905881  0.005  0.058141  0.097903  0.014104  3.894125  0.006
C  C50  1  0.22209366  0.28647953  0.85856185  1  -0.120625  -0.000506  3.748977  -0.003  -0.132615  0.004767  4.005013  0.001  -0.137907  0.000837  4.020556  -0.001  -0.085802  -0.129223  0.007676  3.994804  0.003
C  C51  1  0.63296907  0.85874250  0.28644814  1  -0.121189  -0.000667  3.750689  -0.003  -0.13309  0.004724  4.006404  0.001  -0.138393  0.000813  4.021906  -0.001  -0.085933  -0.12958  0.007357  3.996509  0.003
C  C52  1  0.72208800  0.35856955  0.78648226  1  -0.120764  -0.000503  3.748993  -0.003  -0.13279  0.004765  4.005062  0.001  -0.138085  0.000837  4.020603  -0.001  -0.085771  -0.129399  0.007675  3.994845  0.003
C  C53  1  0.13297162  0.78644516  0.35874469  1  -0.121223  -0.000662  3.750731  -0.003  -0.133126  0.004723  4.006438  0.001  -0.138433  0.000814  4.021941  -0.001  -0.085942  -0.129616  0.007358  3.996534  0.003
C  C54  1  0.22300352  0.39066272  0.85638680  1  -0.05478  0.039293  3.662563  0.025  -0.082969  0.023271  3.914442  0.013  -0.075499  0.013575  3.926495  0.008  -0.069719  -0.087992  0.024452  3.906695  0.014
C  C55  1  0.53006549  0.85650108  0.39061167  1  -0.054867  0.039577  3.661169  0.025  -0.082745  0.02335  3.913051  0.013  -0.075286  0.013584  3.925036  0.008  -0.069917  -0.08838  0.025992  3.905763  0.015
C  C56  1  0.72299668  0.35639346  0.89066454  1  -0.05454  0.039275  3.66275  0.025  -0.082788  0.023258  3.914555  0.013  -0.075317  0.013563  3.926606  0.008  -0.069682  -0.087822  0.024444  3.906812  0.014
C  C57  1  0.03006992  0.89060972  0.35650275  1  -0.054785  0.039555  3.661132  0.025  -0.082645  0.023334  3.913009  0.013  -0.075183  0.013568  3.924999  0.008  -0.069795  -0.088279  0.025979  3.905712  0.015
C  C58  1  0.26318096  0.51944450  0.94556494  1  -0.146618  -0.004139  3.704698  -0.003  -0.1772  -0.001499  3.957028  -0.001  -0.180325  -0.001498  3.976728  -0.001  -0.080118  -0.175302  -0.000763  3.944249  -0.001
C  C59  1  0.27181456  0.94563072  0.51943563  1  -0.148161  -0.004054  3.703326  -0.003  -0.178281  -0.001489  3.955538  -0.001  -0.181449  -0.001485  3.975208  -0.001  -0.079836  -0.176355  -0.000438  3.942646  -0.001
C  C60  1  0.76318280  0.44557008  0.01944269  1  -0.14676  -0.004139  3.704602  -0.003  -0.1774  -0.001499  3.956916  -0.001  -0.180525  -0.001497  3.976614  -0.001  -0.080109  -0.175502  -0.000763  3.944136  -0.001
C  C61  1  0.77181668  0.01943249  0.44563041  1  -0.148251  -0.004047  3.703392  -0.003  -0.178319  -0.001489  3.955635  -0.001  -0.181487  -0.001487  3.975306  -0.001  -0.079867  -0.176396  -0.000438  3.942744  -0.001
C  C62  1  0.29877591  0.53997006  0.02610983  1  0.024067  0.000633  3.76082  0.001  0.031973  0.000623  4.00095  0.0  0.031427  0.000681  4.025825  0.001  0.000253  0.032188  0.000427  3.984561  0.0
C  C63  1  0.13513804  0.02620445  0.53995805  1  0.022416  0.000528  3.761672  0.001  0.030872  0.000607  4.000818  0.0  0.030441  0.000668  4.025621  0.0  -0.000771  0.030939  0.000468  3.984286  0.0
C  C64  1  0.79877968  0.52611432  0.03997050  1  0.024067  0.000635  3.760776  0.001  0.031933  0.000623  4.000959  0.0  0.031387  0.000681  4.025837  0.001  0.000195  0.032146  0.000428  3.984569  0.0
C  C65  1  0.63513812  0.03995555  0.52620256  1  0.022429  0.000524  3.761698  0.001  0.030883  0.000608  4.000896  0.0  0.030452  0.000671  4.025702  0.0  -0.000715  0.030949  0.00047  3.984365  0.0
C  C66  1  0.37502408  0.46533084  0.19048636  1  -0.065257  0.051947  3.705021  0.034  -0.093267  0.032323  3.957814  0.019  -0.084688  0.021204  3.967774  0.012  -0.075828  -0.097797  0.030179  3.950193  0.017
C  C67  1  0.96906815  0.19049348  0.46541244  1  -0.064601  0.051516  3.705985  0.033  -0.092682  0.032126  3.959345  0.019  -0.084057  0.021046  3.96935  0.012  -0.075222  -0.097175  0.030104  3.951428  0.017
C  C68  1  0.87502752  0.69048949  0.96533107  1  -0.06551  0.05194  3.705111  0.034  -0.093536  0.032314  3.957916  0.019  -0.08496  0.021189  3.967877  0.012  -0.0759  -0.098072  0.030175  3.950291  0.017
C  C69  1  0.46906762  0.96541321  0.69049192  1  -0.064659  0.051508  3.706042  0.033  -0.092678  0.03212  3.959401  0.019  -0.084053  0.021032  3.969403  0.012  -0.075232  -0.09718  0.030105  3.951481  0.017
C  C70  1  0.41779128  0.37455447  0.25603020  1  -0.117104  -0.002232  3.738918  -0.005  -0.126554  0.004253  3.989708  0.0  -0.129754  -0.000619  4.001849  -0.002  -0.083356  -0.124606  0.008431  3.980842  0.003
C  C71  1  0.95149274  0.25604484  0.37465470  1  -0.114636  -0.002129  3.739293  -0.005  -0.124181  0.004255  3.9898  0.0  -0.127387  -0.000612  4.001979  -0.002  -0.082938  -0.1222  0.00824  3.9809  0.003
C  C72  1  0.91779575  0.75603195  0.87455306  1  -0.116931  -0.002237  3.738848  -0.005  -0.126391  0.004249  3.989611  0.0  -0.129595  -0.00062  4.001757  -0.002  -0.083359  -0.124444  0.008427  3.980735  0.003
C  C73  1  0.45149421  0.87465475  0.75604460  1  -0.114684  -0.002131  3.739288  -0.005  -0.124229  0.004249  3.989792  0.0  -0.127433  -0.000613  4.001967  -0.002  -0.082941  -0.122246  0.008235  3.980884  0.003
C  C74  1  0.42646371  0.27290193  0.23502873  1  0.155684  0.032821  3.643709  0.019  0.119942  0.01978  3.905425  0.01  0.133628  0.014366  3.912404  0.007  0.061743  0.111001  0.016468  3.899588  0.007
C  C75  1  0.06539906  0.23504030  0.27295775  1  0.152456  0.032547  3.642467  0.019  0.11659  0.01967  3.904206  0.009  0.130269  0.014266  3.911229  0.007  0.060786  0.107429  0.016513  3.898308  0.007
C  C76  1  0.92646580  0.73503382  0.77290195  1  0.155531  0.032819  3.643893  0.019  0.119832  0.019776  3.905673  0.01  0.133519  0.014357  3.912654  0.007  0.061731  0.110889  0.016467  3.899824  0.007
C  C77  1  0.56540072  0.77295767  0.73504296  1  0.15249  0.03254  3.642398  0.019  0.116589  0.019667  3.904145  0.009  0.130269  0.014257  3.911172  0.007  0.060775  0.107427  0.016514  3.898233  0.007
C  C78  1  0.34768876  0.34869872  0.08938610  1  0.124915  0.02819  3.747505  0.016  0.118074  0.020841  3.9895  0.011  0.126564  0.014006  4.003821  0.007  0.113892  0.112671  0.020369  3.97898  0.01
C  C79  1  0.21410882  0.08941086  0.34870191  1  0.125313  0.027994  3.749342  0.016  0.118059  0.02074  3.991595  0.011  0.126682  0.013917  4.005811  0.007  0.114757  0.112611  0.019971  3.980859  0.01
C  C80  1  0.84768972  0.58939025  0.84870147  1  0.124711  0.028184  3.747497  0.016  0.117996  0.020835  3.989491  0.011  0.126487  0.013996  4.003812  0.007  0.113837  0.112589  0.020364  3.978958  0.01
C  C81  1  0.71410729  0.84870107  0.58941265  1  0.125417  0.027984  3.749231  0.016  0.118148  0.020734  3.991549  0.011  0.126806  0.013907  4.00573  0.007  0.114819  0.112697  0.019968  3.980801  0.01
C  C82  1  0.30341398  0.33076502  0.00965489  1  0.110912  0.027542  3.761226  0.016  0.102851  0.018613  4.000823  0.009  0.111148  0.00996  4.015062  0.005  0.11028  0.097432  0.020609  3.990367  0.01
C  C83  1  0.35608694  0.00970555  0.33075484  1  0.112554  0.027632  3.760577  0.016  0.104315  0.01861  4.000443  0.009  0.11268  0.009936  4.014736  0.005  0.110936  0.099015  0.020134  3.989842  0.01
C  C84  1  0.80341409  0.50965757  0.83076629  1  0.111135  0.027531  3.761122  0.016  0.10286  0.018602  4.000919  0.009  0.111158  0.009953  4.015165  0.005  0.110313  0.09744  0.020601  3.99045  0.01
C  C85  1  0.85608944  0.83075417  0.50970626  1  0.112462  0.027618  3.760518  0.016  0.104149  0.018599  4.000536  0.009  0.112504  0.009925  4.014825  0.005  0.110866  0.09885  0.020128  3.989924  0.01
C  C86  1  0.26292852  0.41503380  0.93493484  1  0.033053  -0.003588  3.837172  -0.006  0.049243  0.000948  4.073017  -0.001  0.046019  0.000129  4.093487  -0.001  -0.003988  0.051147  0.001672  4.059464  -0.001
C  C87  1  0.38712655  0.93501112  0.41500763  1  0.034254  -0.003674  3.83307  -0.006  0.049868  0.000931  4.069443  -0.001  0.046641  0.000118  4.08994  -0.001  -0.004018  0.051974  0.001635  4.055755  -0.001
C  C88  1  0.76292544  0.43493993  0.91503239  1  0.032945  -0.003583  3.837362  -0.006  0.049345  0.000949  4.073035  -0.001  0.046123  0.000129  4.093502  -0.001  -0.003963  0.051248  0.001672  4.059472  -0.001
C  C89  1  0.88713063  0.91500386  0.43501201  1  0.034352  -0.003673  3.833118  -0.006  0.049917  0.000933  4.069603  -0.001  0.04669  0.000122  4.090102  -0.001  -0.004071  0.052023  0.001636  4.055906  -0.001
C  C90  1  0.34244441  0.45337964  0.10197619  1  -0.002134  -0.00843  3.757604  -0.01  0.009472  -0.001044  3.989446  -0.003  0.005301  -0.001872  4.010009  -0.003  0.002414  0.011776  0.000707  3.97561  -0.002
C  C91  1  0.10211497  0.10198503  0.45342349  1  -0.001828  -0.0083  3.762756  -0.01  0.009672  -0.001015  3.994573  -0.003  0.005342  -0.001845  4.015266  -0.003  0.002641  0.012057  0.000606  3.980535  -0.002
C  C92  1  0.84244896  0.60198044  0.95337881  1  -0.001987  -0.00843  3.757781  -0.01  0.009651  -0.001044  3.989561  -0.003  0.005481  -0.00187  4.010123  -0.003  0.002491  0.011954  0.000706  3.975715  -0.002
C  C93  1  0.60211224  0.95342184  0.60198581  1  -0.001806  -0.008297  3.762737  -0.01  0.00973  -0.001016  3.994529  -0.003  0.00539  -0.001841  4.015215  -0.003  0.002634  0.012115  0.000604  3.980486  -0.002
C  C94  1  0.28701933  0.65144969  0.03778176  1  0.05348  0.001249  3.809049  0.001  0.069552  0.001012  4.037037  0.001  0.068658  0.000639  4.064057  0.0  -0.010769  0.070164  0.001023  4.018711  0.001
C  C95  1  0.02372541  0.03781067  0.65151004  1  0.053854  0.001247  3.803542  0.001  0.069704  0.001009  4.031749  0.001  0.068787  0.000638  4.05873  0.0  -0.011071  0.070608  0.000875  4.013152  0.001
C  C96  1  0.78702555  0.53778098  0.15144908  1  0.053534  0.001252  3.809017  0.001  0.069638  0.001011  4.036973  0.001  0.068742  0.000639  4.063996  0.0  -0.01076  0.070252  0.001022  4.018646  0.001
C  C97  1  0.52372443  0.15150705  0.53781006  1  0.053879  0.001254  3.803575  0.001  0.069637  0.001008  4.031926  0.001  0.06872  0.000635  4.058907  0.0  -0.011066  0.070543  0.000876  4.013331  0.001
C  C98  1  0.15334220  0.73870521  0.05123739  1  -0.122218  -0.000137  3.764969  0.0  -0.13904  6.5e-05  4.007963  0.0  -0.143479  -1e-05  4.032972  0.0  -0.09577  -0.135883  0.000189  3.99089  0.0
C  C99  1  0.05668702  0.05123103  0.73880120  1  -0.124454  -0.000136  3.764322  0.0  -0.141396  6.8e-05  4.007514  0.0  -0.14586  -9e-06  4.032548  0.0  -0.095614  -0.138257  0.000198  3.990156  0.0
C  C100  1  0.65334893  0.55123813  0.23870436  1  -0.12221  -0.00014  3.764798  0.0  -0.139028  6.6e-05  4.007783  0.0  -0.143477  -1e-05  4.032791  0.0  -0.095824  -0.135871  0.000189  3.990709  0.0
C  C101  1  0.55668656  0.23879785  0.55123144  1  -0.124516  -0.000145  3.764387  0.0  -0.141416  6.7e-05  4.007614  0.0  -0.145877  -7e-06  4.032648  0.0  -0.095602  -0.138277  0.000197  3.990255  0.0
C  C102  1  0.13740794  0.84393540  0.06668768  1  -0.080511  0.001644  3.769339  0.001  -0.102859  0.001281  4.015005  0.001  -0.104482  0.000858  4.036821  0.001  -0.087044  -0.101422  0.001326  3.999928  0.001
C  C103  1  0.95191962  0.06665336  0.84398380  1  -0.078549  0.001634  3.767449  0.001  -0.100634  0.001273  4.01275  0.001  -0.102204  0.000856  4.034587  0.001  -0.086824  -0.09904  0.001156  3.997505  0.001
C  C104  1  0.63741632  0.56669069  0.34393383  1  -0.080683  0.001647  3.769204  0.001  -0.103035  0.001279  4.014901  0.001  -0.104637  0.000858  4.036735  0.001  -0.087112  -0.101598  0.001324  3.999824  0.001
C  C105  1  0.45191893  0.34397943  0.56665446  1  -0.078409  0.001642  3.767577  0.001  -0.100504  0.001272  4.012862  0.001  -0.102074  0.000854  4.0347  0.001  -0.086829  -0.09891  0.001156  3.997613  0.001
C  C106  1  0.25612026  0.86393541  0.06710793  1  -0.060667  0.004402  3.769505  0.003  -0.038131  0.001778  4.000929  0.001  -0.044316  0.001014  4.02396  0.001  -0.019842  -0.033986  0.002617  3.984998  0.002
C  C107  1  0.81285060  0.06694783  0.86392276  1  -0.061947  0.004426  3.770557  0.003  -0.039205  0.001787  4.001895  0.001  -0.045513  0.001014  4.025103  0.001  -0.019678  -0.035058  0.002428  3.986023  0.002
C  C108  1  0.75612987  0.56710884  0.36393356  1  -0.060478  0.004397  3.7692  0.003  -0.037956  0.001778  4.000667  0.001  -0.044211  0.001013  4.023794  0.001  -0.019786  -0.033811  0.00262  3.984732  0.002
C  C109  1  0.31284935  0.36391929  0.56695114  1  -0.062007  0.004419  3.770759  0.003  -0.039258  0.001788  4.002098  0.001  -0.045566  0.001016  4.025305  0.001  -0.019673  -0.035113  0.002428  3.986221  0.002
C  C110  1  0.39138460  0.77782710  0.05023411  1  -0.075188  0.000803  3.753207  0.0  -0.098778  0.000532  4.003134  0.0  -0.098318  0.000246  4.022414  0.0  -0.08798  -0.09888  0.000651  3.989861  0.0
C  C111  1  0.78059100  0.05010193  0.77782555  1  -0.075432  0.000802  3.753096  0.0  -0.099321  0.000532  4.003279  0.0  -0.098888  0.00025  4.022576  0.0  -0.088396  -0.09958  0.000611  3.990497  0.0
C  C112  1  0.89139354  0.55023298  0.27782485  1  -0.075386  0.000808  3.753285  0.0  -0.098967  0.000531  4.003238  0.0  -0.098484  0.000248  4.022532  0.0  -0.088016  -0.099067  0.00065  3.989963  0.0
C  C113  1  0.28058859  0.27781964  0.55010185  1  -0.075321  0.000807  3.753005  0.0  -0.099207  0.000531  4.003177  0.0  -0.098772  0.000248  4.022471  0.0  -0.088351  -0.099463  0.000612  3.990392  0.0
C  C114  1  0.40636844  0.67233791  0.03683048  1  -0.136809  -7.2e-05  3.774856  0.0  -0.154796  0.000555  4.026638  0.0  -0.160196  0.000302  4.051276  0.0  -0.100149  -0.151113  0.000479  4.010029  0.0
C  C115  1  0.88452977  0.03685593  0.67229428  1  -0.132154  -7.5e-05  3.77075  0.0  -0.150022  0.000553  4.022429  0.0  -0.155379  0.0003  4.0471  0.0  -0.098311  -0.146596  0.000568  4.005966  0.0
C  C116  1  0.90637644  0.53682856  0.17233642  1  -0.13676  -7.5e-05  3.774778  0.0  -0.154756  0.000555  4.026559  0.0  -0.160139  0.000301  4.051205  0.0  -0.100148  -0.151074  0.000479  4.009949  0.0
C  C117  1  0.38452885  0.17229083  0.53685521  1  -0.13213  -7.9e-05  3.770661  0.0  -0.149961  0.000554  4.022351  0.0  -0.155316  0.000304  4.047022  0.0  -0.098298  -0.146539  0.000567  4.005893  0.0
C  C118  1  0.23556541  0.97666590  0.09058780  1  0.597599  0.001811  3.969164  0.0  0.554693  0.001478  4.273873  0.0  0.586718  0.000684  4.273486  0.0  0.194264  0.532478  0.001412  4.273335  0.0
C  C119  1  0.69717571  0.09048041  0.97670714  1  0.595064  0.001802  3.968736  0.0  0.551685  0.001468  4.274391  0.0  0.583734  0.000674  4.2741  0.0  0.193858  0.529804  0.001375  4.273031  0.0
C  C120  1  0.73557520  0.59059052  0.47666166  1  0.597539  0.001809  3.969282  0.0  0.554586  0.001475  4.274045  0.0  0.586627  0.000681  4.273665  0.0  0.194207  0.532373  0.001409  4.273501  0.0
C  C121  1  0.19717225  0.47670235  0.59048402  1  0.594838  0.001801  3.969292  0.0  0.551434  0.001466  4.274966  0.0  0.583484  0.00067  4.274675  0.0  0.193701  0.529557  0.001374  4.2736  0.0
N  N122  1  0.30162971  0.22832734  0.01156411  1  -0.270658  0.044601  3.269629  0.04  -0.216298  0.029164  3.551806  0.027  -0.229582  0.016187  3.564905  0.016  -0.326285  -0.206039  0.034167  3.541009  0.032
N  N123  1  0.45842746  0.01165978  0.22829990  1  -0.272741  0.04445  3.272431  0.04  -0.217814  0.029118  3.554102  0.027  -0.231436  0.016132  3.567511  0.016  -0.326881  -0.207473  0.033834  3.543309  0.031
N  N124  1  0.80162547  0.51156789  0.72833018  1  -0.270802  0.04459  3.269737  0.04  -0.216455  0.029155  3.552042  0.027  -0.229756  0.01618  3.565155  0.016  -0.326377  -0.206199  0.034161  3.541233  0.032
N  N125  1  0.95843169  0.72829943  0.51166026  1  -0.272762  0.044443  3.272423  0.04  -0.217766  0.029107  3.554069  0.027  -0.231396  0.016128  3.567484  0.016  -0.326882  -0.207436  0.033826  3.543278  0.031
N  N126  1  0.39025875  0.25921848  0.15430187  1  -0.28155  0.052516  3.307267  0.047  -0.229401  0.035186  3.595232  0.031  -0.245569  0.019029  3.611594  0.017  -0.324896  -0.216919  0.040152  3.581878  0.036
N  N127  1  0.19604395  0.15433312  0.25926127  1  -0.28105  0.052428  3.305442  0.047  -0.227968  0.035084  3.591945  0.031  -0.244178  0.018952  3.608304  0.017  -0.324936  -0.215195  0.039671  3.578042  0.036
N  N128  1  0.89026200  0.65430663  0.75922097  1  -0.281391  0.052507  3.307302  0.047  -0.229383  0.035177  3.595377  0.031  -0.245557  0.019022  3.611738  0.017  -0.324948  -0.216907  0.040151  3.582013  0.036
N  N129  1  0.69604524  0.75926098  0.65433567  1  -0.281145  0.052423  3.305622  0.047  -0.228026  0.035076  3.592131  0.031  -0.244261  0.018949  3.608495  0.017  -0.324961  -0.215258  0.039667  3.578216  0.036
O  O130  1  0.10959609  0.04702591  0.12650804  1  -0.608472  0.001595  1.881754  0.001  -0.576852  0.000322  2.09468  0.0  -0.60303  -9e-05  2.089128  0.0  -0.33604  -0.558396  0.000438  2.098024  0.0
O  O131  1  0.71688455  0.12643840  0.04700235  1  -0.607275  0.001589  1.879863  0.001  -0.575516  0.00032  2.093115  0.0  -0.601683  -8.8e-05  2.087539  0.0  -0.336064  -0.557265  0.000493  2.096017  0.0
O  O132  1  0.60960672  0.62652026  0.54701937  1  -0.608439  0.001595  1.881636  0.001  -0.576811  0.00032  2.094588  0.0  -0.602988  -9e-05  2.089032  0.0  -0.336017  -0.558356  0.000437  2.09793  0.0
O  O133  1  0.21687981  0.54699660  0.62644946  1  -0.607174  0.00159  1.879869  0.001  -0.57539  0.000319  2.09311  0.0  -0.601561  -8.8e-05  2.087539  0.0  -0.335983  -0.557139  0.000492  2.096007  0.0
O  O134  1  0.35842041  0.98791607  0.07048736  1  -0.565776  0.029758  2.013298  0.031  -0.524157  0.005725  2.274792  0.009  -0.562359  0.003522  2.275436  0.006  -0.298629  -0.496438  0.006114  2.273285  0.009
O  O135  1  0.58312340  0.07043179  0.98790281  1  -0.564017  0.029912  2.014509  0.031  -0.521823  0.005798  2.275553  0.009  -0.560123  0.003575  2.276394  0.006  -0.297584  -0.493652  0.005885  2.273338  0.009
O  O136  1  0.85842602  0.57047633  0.48791024  1  -0.565797  0.029762  2.013542  0.031  -0.524076  0.005739  2.274945  0.009  -0.5623  0.003531  2.275631  0.006  -0.298584  -0.496367  0.006132  2.273439  0.009
O  O137  1  0.08313284  0.48789483  0.57042934  1  -0.563919  0.029908  2.014854  0.031  -0.521686  0.005807  2.275866  0.009  -0.559985  0.003581  2.276702  0.006  -0.297514  -0.493529  0.005898  2.273653  0.009
