# generated using pymatgen
data_CdH15C19(NO2)2
_symmetry_space_group_name_H-M   'P 1'
_cell_length_a   13.93526240
_cell_length_b   14.97397264
_cell_length_c   17.81241390
_cell_angle_alpha   90.00008997
_cell_angle_beta   90.00009176
_cell_angle_gamma   89.99993619
_symmetry_Int_Tables_number   1
_chemical_formula_structural   CdH15C19(NO2)2
_chemical_formula_sum   'Cd8 H120 C152 N16 O32'
_cell_volume   3716.84939751
_cell_formula_units_Z   8
loop_
 _symmetry_equiv_pos_site_id
 _symmetry_equiv_pos_as_xyz
  1  'x, y, z'
loop_
 _atom_site_type_symbol
 _atom_site_label
 _atom_site_symmetry_multiplicity
 _atom_site_fract_x
 _atom_site_fract_y
 _atom_site_fract_z
 _atom_site_occupancy
 _atom_site_pbe_bader_charge
 _atom_site_pbe_bader_spin_density
 _atom_site_pbe_cm5_charge
 _atom_site_pbe_ddec_charge
 _atom_site_pbe_ddec_spin_density
 _atom_site_pbe_ddec_sum_bond_order
 _atom_site_pbe_magmom
Cd  Cd0  1  0.74999905  0.83930130  0.75000044  1  1.291184  0  0.808107  0.941706  0  2.23977  0
Cd  Cd1  1  0.24999945  0.66069719  0.24999927  1  1.291211  0  0.80806  0.941649  0  2.239874  0
Cd  Cd2  1  0.25000047  0.16069360  0.24999895  1  1.291187  0  0.80806  0.941669  0  2.239898  0
Cd  Cd3  1  0.74999792  0.33930707  0.74999899  1  1.291162  0  0.80805  0.941653  0  2.239914  0
Cd  Cd4  1  0.75000136  0.58598776  0.74999690  1  1.289174  0  0.766769  0.995824  0  1.995203  0
Cd  Cd5  1  0.25000002  0.91401273  0.25000000  1  1.289147  0  0.766795  0.995885  0  1.995188  0
Cd  Cd6  1  0.25000176  0.41401315  0.24999967  1  1.289269  0  0.766749  0.99584  0  1.99511  0
Cd  Cd7  1  0.75000525  0.08598885  0.74999938  1  1.289173  0  0.766772  0.995889  0  1.995085  0
H  H8  1  0.71973890  0.95860085  0.59747092  1  0.19093  0  0.136206  0.11957  0  1.025117  0
H  H9  1  0.78025978  0.95860043  0.90253124  1  0.190792  0  0.136156  0.119498  0  1.025171  0
H  H10  1  0.21973976  0.54140101  0.40252932  1  0.190813  0  0.136187  0.119539  0  1.02517  0
H  H11  1  0.28026288  0.54139803  0.09747300  1  0.190887  0  0.136206  0.119597  0  1.025083  0
H  H12  1  0.28025919  0.04140007  0.40252903  1  0.190902  0  0.136198  0.119578  0  1.025132  0
H  H13  1  0.21973831  0.04140048  0.09747264  1  0.190952  0  0.136189  0.119533  0  1.025071  0
H  H14  1  0.78025977  0.45859923  0.59746951  1  0.190926  0  0.136166  0.119507  0  1.025176  0
H  H15  1  0.71974023  0.45860022  0.90253087  1  0.190929  0  0.136161  0.119503  0  1.025208  0
H  H16  1  0.58480084  0.71238173  0.64754979  1  0.183977  0  0.119522  0.132454  0  1.018717  0
H  H17  1  0.91520172  0.71238176  0.85245541  1  0.183565  0  0.119507  0.132473  0  1.01879  0
H  H18  1  0.08479771  0.78761826  0.35245084  1  0.18394  0  0.119517  0.132461  0  1.018775  0
H  H19  1  0.41519961  0.78761924  0.14754620  1  0.18392  0  0.119486  0.132422  0  1.018874  0
H  H20  1  0.41519796  0.28761785  0.35245408  1  0.183504  0  0.119496  0.132452  0  1.018816  0
H  H21  1  0.08479852  0.28762183  0.14754678  1  0.183897  0  0.119477  0.132423  0  1.018835  0
H  H22  1  0.91520038  0.21238199  0.64754630  1  0.183941  0  0.119503  0.132449  0  1.018791  0
H  H23  1  0.58480064  0.21238168  0.85245431  1  0.183954  0  0.119517  0.132469  0  1.01878  0
H  H24  1  0.53299181  0.76564404  0.50338124  1  0.130002  0  0.112999  0.110265  0  1.072151  0
H  H25  1  0.96700926  0.76564762  0.99662235  1  0.129899  0  0.112997  0.110262  0  1.072142  0
H  H26  1  0.03299119  0.73435400  0.49661989  1  0.129908  0  0.11305  0.110346  0  1.072231  0
H  H27  1  0.46700978  0.73435131  0.00337876  1  0.129891  0  0.113021  0.110288  0  1.072185  0
H  H28  1  0.46701131  0.23435086  0.49661871  1  0.129932  0  0.112991  0.110257  0  1.072155  0
H  H29  1  0.03298453  0.23435062  0.00338209  1  0.129923  0  0.113003  0.110307  0  1.072089  0
H  H30  1  0.96701049  0.26564758  0.50338006  1  0.12993  0  0.113015  0.110308  0  1.072115  0
H  H31  1  0.53298759  0.26565027  0.99662006  1  0.129926  0  0.113022  0.110326  0  1.072064  0
H  H32  1  0.77729080  0.68657605  0.49787619  1  0.086844  0  0.103747  0.10664  0  1.00314  0
H  H33  1  0.72270934  0.68657361  0.00212190  1  0.086984  0  0.103723  0.106576  0  1.00317  0
H  H34  1  0.27729297  0.81342909  0.50211794  1  0.086456  0  0.10375  0.106636  0  1.003178  0
H  H35  1  0.22270893  0.81342424  0.99787890  1  0.086873  0  0.103712  0.106596  0  1.00312  0
H  H36  1  0.22270944  0.31342687  0.50211983  1  0.086779  0  0.103746  0.106671  0  1.003164  0
H  H37  1  0.27729091  0.31342530  0.99788141  1  0.086696  0  0.103723  0.106605  0  1.003218  0
H  H38  1  0.72270727  0.18657517  0.49787976  1  0.08589  0  0.103732  0.106648  0  1.003183  0
H  H39  1  0.77729203  0.18657467  0.00212217  1  0.086845  0  0.103731  0.106634  0  1.003166  0
H  H40  1  0.06944132  0.98257696  0.79124550  1  0.063657  0  0.100467  0.101423  0  1.008587  0
H  H41  1  0.43055607  0.98257870  0.70875719  1  0.063659  0  0.100448  0.101401  0  1.008622  0
H  H42  1  0.56944522  0.51742238  0.20875455  1  0.063657  0  0.100469  0.101414  0  1.008633  0
H  H43  1  0.93055225  0.51742027  0.29123939  1  0.063645  0  0.10046  0.101385  0  1.008662  0
H  H44  1  0.93055964  0.01741861  0.20875669  1  0.063569  0  0.10044  0.101353  0  1.008659  0
H  H45  1  0.56944274  0.01741820  0.29124501  1  0.063547  0  0.10044  0.101364  0  1.008641  0
H  H46  1  0.43056148  0.48257853  0.79124540  1  0.063632  0  0.10048  0.101417  0  1.008544  0
H  H47  1  0.06943938  0.48257931  0.70875607  1  0.063627  0  0.10047  0.101411  0  1.008556  0
H  H48  1  0.62914986  0.89751339  0.41463092  1  0.039018  0  0.106901  0.080558  0  0.992226  0
H  H49  1  0.87084572  0.89751563  0.08537194  1  0.038975  0  0.106862  0.08051  0  0.992182  0
H  H50  1  0.12915316  0.60248455  0.58537033  1  0.039013  0  0.106868  0.080496  0  0.99223  0
H  H51  1  0.37084827  0.60248474  0.91463130  1  0.039051  0  0.106877  0.080536  0  0.992216  0
H  H52  1  0.37084536  0.10248418  0.58536902  1  0.039036  0  0.10686  0.080512  0  0.992244  0
H  H53  1  0.12915022  0.10248395  0.91463138  1  0.039101  0  0.106872  0.080541  0  0.99217  0
H  H54  1  0.87084708  0.39751703  0.41462906  1  0.039048  0  0.10686  0.080494  0  0.992222  0
H  H55  1  0.62915269  0.39751751  0.08537089  1  0.039044  0  0.106831  0.080463  0  0.99226  0
H  H56  1  0.66786890  0.98810595  0.47139030  1  0.076575  0  0.1183  0.100281  0  0.962152  0
H  H57  1  0.83212729  0.98810812  0.02861156  1  0.076907  0  0.118346  0.100326  0  0.96208  0
H  H58  1  0.16787077  0.51189262  0.52860931  1  0.076515  0  0.118334  0.100278  0  0.962166  0
H  H59  1  0.33212934  0.51189095  0.97138994  1  0.076905  0  0.118334  0.100306  0  0.962085  0
H  H60  1  0.33212919  0.01189096  0.52860853  1  0.076899  0  0.118335  0.100297  0  0.962108  0
H  H61  1  0.16786722  0.01189279  0.97139288  1  0.076557  0  0.118303  0.100281  0  0.962197  0
H  H62  1  0.83213019  0.48810829  0.47139175  1  0.076912  0  0.118325  0.100294  0  0.962155  0
H  H63  1  0.66786803  0.48810997  0.02861000  1  0.076915  0  0.118336  0.100332  0  0.962155  0
H  H64  1  0.99034086  0.94480005  0.54733133  1  0.074394  0  0.102152  0.103691  0  1.021709  0
H  H65  1  0.50966429  0.94480001  0.95266127  1  0.074497  0  0.102112  0.103619  0  1.021778  0
H  H66  1  0.49033535  0.55519819  0.45266644  1  0.074468  0  0.102118  0.103653  0  1.021734  0
H  H67  1  0.00965651  0.55520140  0.04733927  1  0.074442  0  0.102129  0.10369  0  1.021754  0
H  H68  1  0.00966081  0.05520153  0.45266637  1  0.074478  0  0.102143  0.10369  0  1.021752  0
H  H69  1  0.49034385  0.05520158  0.04733082  1  0.074381  0  0.102162  0.103681  0  1.021746  0
H  H70  1  0.50965987  0.44480138  0.54733575  1  0.074411  0  0.10212  0.103671  0  1.021698  0
H  H71  1  0.99033799  0.44480285  0.95266629  1  0.074372  0  0.102147  0.103693  0  1.021708  0
H  H72  1  0.80581754  0.79941507  0.39673951  1  0.062489  0  0.100321  0.095859  0  1.009725  0
H  H73  1  0.69418605  0.79941752  0.10325816  1  0.062595  0  0.100308  0.095818  0  1.009668  0
H  H74  1  0.30581718  0.70059271  0.60325803  1  0.062544  0  0.100322  0.095866  0  1.009696  0
H  H75  1  0.19417552  0.70058303  0.89674316  1  0.062467  0  0.100354  0.095855  0  1.009715  0
H  H76  1  0.19418414  0.20058852  0.60325819  1  0.062574  0  0.1003  0.095835  0  1.009645  0
H  H77  1  0.30581563  0.20058606  0.89674122  1  0.062557  0  0.1003  0.095827  0  1.009625  0
H  H78  1  0.69417804  0.29941154  0.39674136  1  0.062381  0  0.100315  0.095838  0  1.009644  0
H  H79  1  0.80581898  0.29941455  0.10326015  1  0.06256  0  0.100316  0.095823  0  1.009638  0
H  H80  1  0.17551693  0.85410068  0.82516228  1  0.057118  0  0.09859  0.096137  0  1.004411  0
H  H81  1  0.32447845  0.85410447  0.67484024  1  0.057422  0  0.09858  0.096148  0  1.004324  0
H  H82  1  0.67552062  0.64589789  0.17483791  1  0.057363  0  0.098631  0.096205  0  1.00437  0
H  H83  1  0.82447527  0.64589127  0.32515957  1  0.057371  0  0.098602  0.096181  0  1.004265  0
H  H84  1  0.82448044  0.14589222  0.17483992  1  0.05713  0  0.098591  0.096179  0  1.004341  0
H  H85  1  0.67552107  0.14589244  0.32515971  1  0.057402  0  0.098579  0.096198  0  1.004369  0
H  H86  1  0.32448322  0.35410503  0.82516092  1  0.057146  0  0.098595  0.096161  0  1.004345  0
H  H87  1  0.17551924  0.35410430  0.67483925  1  0.057151  0  0.098583  0.09615  0  1.004335  0
H  H88  1  0.04259434  0.69846320  0.65059283  1  0.053967  0  0.097098  0.094547  0  1.023957  0
H  H89  1  0.45740482  0.69845983  0.84940331  1  0.054044  0  0.097117  0.094623  0  1.023889  0
H  H90  1  0.54259604  0.80153951  0.34940270  1  0.054037  0  0.097115  0.094603  0  1.0239  0
H  H91  1  0.95740181  0.80154379  0.15060172  1  0.054074  0  0.097119  0.094485  0  1.023974  0
H  H92  1  0.95740590  0.30153638  0.34940319  1  0.0541  0  0.097072  0.094514  0  1.023976  0
H  H93  1  0.54259829  0.30153374  0.15059439  1  0.054071  0  0.097104  0.094573  0  1.023952  0
H  H94  1  0.45740420  0.19846341  0.65059556  1  0.054052  0  0.097085  0.094568  0  1.023985  0
H  H95  1  0.04259485  0.19846247  0.84940609  1  0.05398  0  0.097102  0.094581  0  1.023913  0
H  H96  1  0.50975328  0.02154752  0.41579968  1  0.030049  0  0.095905  0.095518  0  0.999103  0
H  H97  1  0.99024623  0.02154763  0.08420315  1  0.029976  0  0.095912  0.095524  0  0.999199  0
H  H98  1  0.00975398  0.47845273  0.58420132  1  0.030015  0  0.095901  0.095469  0  0.999203  0
H  H99  1  0.49024617  0.47845146  0.91579958  1  0.029981  0  0.095915  0.095531  0  0.999204  0
H  H100  1  0.49024553  0.97845273  0.58420251  1  0.029986  0  0.095914  0.095495  0  0.999189  0
H  H101  1  0.00975258  0.97844995  0.91580073  1  0.029996  0  0.095916  0.095522  0  0.999123  0
H  H102  1  0.99024555  0.52154952  0.41579919  1  0.029969  0  0.095904  0.095519  0  0.99918  0
H  H103  1  0.50975120  0.52154945  0.08420205  1  0.029995  0  0.095876  0.095437  0  0.999246  0
H  H104  1  0.45939348  0.92304381  0.45245894  1  0.045784  0  0.090279  0.093009  0  1.021247  0
H  H105  1  0.04060152  0.92304298  0.04754388  1  0.045674  0  0.090266  0.09299  0  1.021335  0
H  H106  1  0.95939657  0.57695646  0.54754272  1  0.045649  0  0.09028  0.092991  0  1.021284  0
H  H107  1  0.54060329  0.57695439  0.95245894  1  0.0458  0  0.090279  0.093039  0  1.021284  0
H  H108  1  0.54060318  0.07695576  0.54754381  1  0.045649  0  0.090289  0.093003  0  1.021292  0
H  H109  1  0.95939226  0.07695326  0.95245775  1  0.04578  0  0.090302  0.093043  0  1.021239  0
H  H110  1  0.04060439  0.42304512  0.45245667  1  0.045792  0  0.090275  0.093004  0  1.021281  0
H  H111  1  0.45939552  0.42304386  0.04754382  1  0.045761  0  0.090271  0.092987  0  1.021277  0
H  H112  1  0.91188008  0.92983267  0.42243186  1  0.075635  0  0.102071  0.102976  0  1.012091  0
H  H113  1  0.58812694  0.92983785  0.07756150  1  0.075735  0  0.102015  0.102965  0  1.01182  0
H  H114  1  0.41187336  0.57016899  0.57756694  1  0.075865  0  0.102015  0.102943  0  1.011874  0
H  H115  1  0.08811519  0.57016414  0.92243745  1  0.075698  0  0.101991  0.102903  0  1.01194  0
H  H116  1  0.08812734  0.07016558  0.57756528  1  0.075715  0  0.102028  0.102946  0  1.011823  0
H  H117  1  0.41187761  0.07016573  0.92243227  1  0.075616  0  0.102017  0.102944  0  1.011859  0
H  H118  1  0.58812186  0.42983392  0.42243413  1  0.075672  0  0.102022  0.102978  0  1.011844  0
H  H119  1  0.91187357  0.42983811  0.07756642  1  0.075627  0  0.102009  0.102923  0  1.011837  0
H  H120  1  0.15747208  0.70951575  0.75584534  1  0.059711  0  0.098298  0.090144  0  1.010867  0
H  H121  1  0.34252563  0.70951631  0.74415193  1  0.058106  0  0.098297  0.090123  0  1.010845  0
H  H122  1  0.65747573  0.79048484  0.24415201  1  0.05964  0  0.098301  0.090167  0  1.010837  0
H  H123  1  0.84252141  0.79048209  0.25585183  1  0.057924  0  0.098347  0.090248  0  1.010788  0
H  H124  1  0.84252673  0.29047983  0.24415292  1  0.059754  0  0.098317  0.09015  0  1.010845  0
H  H125  1  0.65747604  0.29047860  0.25584521  1  0.058173  0  0.098316  0.090173  0  1.010863  0
H  H126  1  0.34252667  0.20951874  0.75584681  1  0.058137  0  0.098307  0.090142  0  1.01088  0
H  H127  1  0.15747309  0.20951683  0.74415429  1  0.059722  0  0.098302  0.090171  0  1.010808  0
C  C128  1  0.83794642  0.68528925  0.63652953  1  1.534281  0  0.196034  0.564944  0  4.221276  0
C  C129  1  0.66205546  0.68528221  0.86347115  1  1.534239  0  0.196055  0.565001  0  4.220923  0
C  C130  1  0.33795046  0.81471249  0.36346580  1  1.534239  0  0.196019  0.564837  0  4.221134  0
C  C131  1  0.16205113  0.81471437  0.13653351  1  1.534316  0  0.195982  0.564829  0  4.221342  0
C  C132  1  0.16205884  0.31470832  0.36346143  1  1.533983  0  0.196013  0.564999  0  4.221225  0
C  C133  1  0.33794694  0.31470869  0.13653554  1  1.533922  0  0.19606  0.564991  0  4.221392  0
C  C134  1  0.66205050  0.18529110  0.63653695  1  1.53396  0  0.196021  0.56487  0  4.2211  0
C  C135  1  0.83794480  0.18529589  0.86346307  1  1.533478  0  0.196061  0.565062  0  4.22118  0
C  C136  1  0.92698804  0.98924935  0.69711001  1  1.566789  0  0.199796  0.578533  0  4.23012  0
C  C137  1  0.57301562  0.98924762  0.80288882  1  1.567013  0  0.199896  0.578605  0  4.230283  0
C  C138  1  0.42699232  0.51075030  0.30288768  1  1.567056  0  0.199806  0.57859  0  4.230202  0
C  C139  1  0.07301108  0.51075305  0.19710505  1  1.566849  0  0.199867  0.578606  0  4.230242  0
C  C140  1  0.07301436  0.01074890  0.30289050  1  1.567047  0  0.199883  0.578563  0  4.230249  0
C  C141  1  0.42698749  0.01074728  0.19710888  1  1.56688  0  0.19979  0.578503  0  4.230373  0
C  C142  1  0.57301438  0.48924594  0.69710665  1  1.567065  0  0.199857  0.578634  0  4.229947  0
C  C143  1  0.92698701  0.48924987  0.80289152  1  1.567042  0  0.199848  0.578667  0  4.229999  0
C  C144  1  0.67738307  0.89819872  0.59235869  1  0.995111  0  0.140993  0.088807  0  3.916378  0
C  C145  1  0.82261711  0.89819961  0.90764283  1  0.9951  0  0.141069  0.088963  0  3.916355  0
C  C146  1  0.17738315  0.60180051  0.40764262  1  0.995094  0  0.140992  0.088762  0  3.916321  0
C  C147  1  0.32261655  0.60180014  0.09235978  1  0.995116  0  0.140949  0.088807  0  3.916345  0
C  C148  1  0.32261717  0.10179885  0.40764126  1  0.995092  0  0.14098  0.088831  0  3.916302  0
C  C149  1  0.17738313  0.10180197  0.09235992  1  0.995118  0  0.140955  0.088795  0  3.916375  0
C  C150  1  0.82261781  0.39819974  0.59235789  1  0.995108  0  0.141047  0.088936  0  3.916423  0
C  C151  1  0.67738370  0.39820011  0.90764241  1  0.99507  0  0.141069  0.089  0  3.916485  0
C  C152  1  0.60536085  0.77135135  0.61582815  1  0.366286  0  0.000951  -0.020628  0  3.958034  0
C  C153  1  0.89464021  0.77135011  0.88417433  1  0.366676  0  0.000937  -0.020651  0  3.958239  0
C  C154  1  0.10535929  0.72864729  0.38417307  1  0.36639  0  0.000919  -0.020719  0  3.958355  0
C  C155  1  0.39463954  0.72865090  0.11582838  1  0.366349  0  0.000992  -0.020551  0  3.958002  0
C  C156  1  0.39463653  0.22865023  0.38417236  1  0.366717  0  0.000981  -0.020616  0  3.95823  0
C  C157  1  0.10536075  0.22865147  0.11582674  1  0.366268  0  0.001006  -0.020602  0  3.958301  0
C  C158  1  0.89463808  0.27135029  0.61582631  1  0.366311  0  0.00092  -0.020661  0  3.958318  0
C  C159  1  0.60536071  0.27135135  0.88417325  1  0.366305  0  0.000886  -0.020675  0  3.958228  0
C  C160  1  0.86741760  0.75189342  0.57815794  1  -0.03729  0  -0.019226  -0.093528  0  3.95455  0
C  C161  1  0.63258420  0.75188785  0.92184114  1  -0.037324  0  -0.019156  -0.093483  0  3.954174  0
C  C162  1  0.36741897  0.74810762  0.42183911  1  -0.037386  0  -0.019219  -0.093516  0  3.954555  0
C  C163  1  0.13258055  0.74810675  0.07816180  1  -0.037315  0  -0.019207  -0.093573  0  3.954578  0
C  C164  1  0.13258336  0.24810483  0.42183583  1  -0.037068  0  -0.019167  -0.09362  0  3.954568  0
C  C165  1  0.36741963  0.24810372  0.07816218  1  -0.037359  0  -0.019216  -0.093703  0  3.954738  0
C  C166  1  0.63258343  0.25189529  0.57816195  1  -0.037079  0  -0.019207  -0.093644  0  3.954702  0
C  C167  1  0.86741538  0.25189750  0.92183759  1  -0.037022  0  -0.019185  -0.093676  0  3.954784  0
C  C168  1  0.99562117  0.91201864  0.70401867  1  -0.002653  0  -0.015125  -0.071015  0  3.935075  0
C  C169  1  0.50438402  0.91201831  0.79597726  1  -0.002848  0  -0.015066  -0.071179  0  3.935167  0
C  C170  1  0.49562535  0.58798160  0.29598248  1  -0.002755  0  -0.015124  -0.071016  0  3.935084  0
C  C171  1  0.00437867  0.58798109  0.20401822  1  -0.002752  0  -0.015031  -0.070887  0  3.934887  0
C  C172  1  0.00438050  0.08798027  0.29598072  1  -0.002918  0  -0.015088  -0.071013  0  3.935153  0
C  C173  1  0.49562197  0.08797926  0.20401764  1  -0.002641  0  -0.015135  -0.071061  0  3.935013  0
C  C174  1  0.50437920  0.41201932  0.70401971  1  -0.002939  0  -0.015068  -0.070987  0  3.935086  0
C  C175  1  0.99562229  0.41201915  0.79598229  1  -0.002756  0  -0.015148  -0.071114  0  3.935125  0
C  C176  1  0.57951625  0.79667590  0.54444984  1  0.296647  0  -0.004826  -0.111878  0  3.914397  0
C  C177  1  0.92048262  0.79667812  0.95555042  1  0.296217  0  -0.004756  -0.111851  0  3.914733  0
C  C178  1  0.07951487  0.70332410  0.45555191  1  0.295825  0  -0.004797  -0.111909  0  3.914614  0
C  C179  1  0.42048255  0.70332220  0.04444838  1  0.296271  0  -0.00479  -0.111862  0  3.914496  0
C  C180  1  0.42048399  0.20332234  0.45554842  1  0.29677  0  -0.004804  -0.111838  0  3.914508  0
C  C181  1  0.07951332  0.20332280  0.04445233  1  0.296739  0  -0.004774  -0.111884  0  3.914719  0
C  C182  1  0.92048466  0.29667815  0.54445028  1  0.296194  0  -0.004762  -0.11187  0  3.914621  0
C  C183  1  0.57951554  0.29668005  0.95554876  1  0.296775  0  -0.004819  -0.111951  0  3.914833  0
C  C184  1  0.92874186  0.82508506  0.59330196  1  -0.048778  0  -0.001775  0.047923  0  3.969046  0
C  C185  1  0.57126057  0.82508020  0.90669272  1  -0.048056  0  -0.001836  0.047753  0  3.968615  0
C  C186  1  0.42874184  0.67491792  0.40669686  1  -0.048504  0  -0.001697  0.048061  0  3.968831  0
C  C187  1  0.07125489  0.67491847  0.09330677  1  -0.047758  0  -0.001731  0.048035  0  3.968651  0
C  C188  1  0.07126269  0.17491451  0.40669462  1  -0.048573  0  -0.001756  0.048047  0  3.96889  0
C  C189  1  0.42874183  0.17491404  0.09330273  1  -0.048954  0  -0.001783  0.048055  0  3.968963  0
C  C190  1  0.57125912  0.32508433  0.59330477  1  -0.048467  0  -0.001742  0.04807  0  3.968877  0
C  C191  1  0.92873961  0.32508778  0.90669599  1  -0.04839  0  -0.001763  0.048073  0  3.969076  0
C  C192  1  0.82443736  0.74356492  0.50724557  1  -0.019149  0  -0.084392  -0.094414  0  3.998269  0
C  C193  1  0.67556373  0.74356412  0.99275463  1  -0.018831  0  -0.084341  -0.094277  0  3.998207  0
C  C194  1  0.32443599  0.75643817  0.49275144  1  -0.01824  0  -0.08437  -0.094438  0  3.998201  0
C  C195  1  0.17556065  0.75643311  0.00724949  1  -0.018253  0  -0.084343  -0.094362  0  3.998106  0
C  C196  1  0.17556575  0.25643666  0.49274933  1  -0.018112  0  -0.084395  -0.094502  0  3.998267  0
C  C197  1  0.32443651  0.25643546  0.00724925  1  -0.018024  0  -0.08432  -0.094345  0  3.99822  0
C  C198  1  0.67556354  0.24356475  0.50724851  1  -0.017261  0  -0.084328  -0.09439  0  3.998261  0
C  C199  1  0.82443600  0.24356580  0.99275102  1  -0.018406  0  -0.084379  -0.094423  0  3.99824  0
C  C200  1  0.06449488  0.91934722  0.76109176  1  -0.074195  0  -0.092093  -0.106012  0  4.000423  0
C  C201  1  0.43550545  0.91934634  0.73890691  1  -0.074394  0  -0.092075  -0.105919  0  4.000471  0
C  C202  1  0.56450092  0.58065146  0.23890940  1  -0.074073  0  -0.092137  -0.106037  0  4.000446  0
C  C203  1  0.93549934  0.58064795  0.26108967  1  -0.074104  0  -0.092111  -0.106013  0  4.000273  0
C  C204  1  0.93550536  0.08064768  0.23890930  1  -0.074114  0  -0.09209  -0.105946  0  4.000346  0
C  C205  1  0.56449694  0.08064789  0.26109023  1  -0.07404  0  -0.092073  -0.105913  0  4.000314  0
C  C206  1  0.43550506  0.41934879  0.76109167  1  -0.074193  0  -0.092081  -0.105978  0  4.000321  0
C  C207  1  0.06449516  0.41934896  0.73891027  1  -0.074168  0  -0.09215  -0.106052  0  4.000394  0
C  C208  1  0.98865899  0.83240847  0.66209055  1  -0.067534  0  -0.006637  0.045714  0  3.973011  0
C  C209  1  0.51134415  0.83240554  0.83790415  1  -0.067396  0  -0.006694  0.045907  0  3.972874  0
C  C210  1  0.48866243  0.66759511  0.33790835  1  -0.067494  0  -0.006614  0.045767  0  3.973064  0
C  C211  1  0.01133575  0.66759720  0.16209583  1  -0.067431  0  -0.006788  0.045713  0  3.972909  0
C  C212  1  0.01134269  0.16759244  0.33790603  1  -0.067585  0  -0.006684  0.045735  0  3.972921  0
C  C213  1  0.48866040  0.16759070  0.16209131  1  -0.067525  0  -0.006629  0.045732  0  3.972992  0
C  C214  1  0.51134068  0.33240780  0.66209272  1  -0.06752  0  -0.00665  0.045759  0  3.972925  0
C  C215  1  0.98865947  0.33240906  0.83790973  1  -0.067647  0  -0.006608  0.04582  0  3.972934  0
C  C216  1  0.61346306  0.93539718  0.46605631  1  0.3123  0  -0.047733  -0.059232  0  3.901766  0
C  C217  1  0.88653247  0.93539864  0.03394660  1  0.31186  0  -0.047632  -0.059041  0  3.901309  0
C  C218  1  0.11346488  0.56460078  0.53394548  1  0.31225  0  -0.047668  -0.059092  0  3.901679  0
C  C219  1  0.38653517  0.56459971  0.96605497  1  0.311865  0  -0.047721  -0.059151  0  3.901541  0
C  C220  1  0.38653503  0.06459972  0.53394532  1  0.311853  0  -0.0477  -0.059138  0  3.901552  0
C  C221  1  0.11346131  0.06459960  0.96605784  1  0.312285  0  -0.047736  -0.059206  0  3.901719  0
C  C222  1  0.88653537  0.43540014  0.46605615  1  0.311874  0  -0.047652  -0.05905  0  3.901748  0
C  C223  1  0.61346508  0.43540054  0.03394442  1  0.311862  0  -0.047674  -0.059137  0  3.901678  0
C  C224  1  0.94182799  0.88916152  0.53650735  1  -0.022785  0  -0.088658  -0.131143  0  3.955714  0
C  C225  1  0.55817652  0.88916011  0.96348854  1  -0.023422  0  -0.088636  -0.131014  0  3.955795  0
C  C226  1  0.44182243  0.61083944  0.46349148  1  -0.023057  0  -0.088638  -0.131098  0  3.955767  0
C  C227  1  0.05816937  0.61083790  0.03651430  1  -0.023967  0  -0.08865  -0.131155  0  3.955645  0
C  C228  1  0.05817441  0.11083939  0.46348979  1  -0.023442  0  -0.088656  -0.131158  0  3.955889  0
C  C229  1  0.44183019  0.11083746  0.03650804  1  -0.0227  0  -0.088652  -0.131084  0  3.955695  0
C  C230  1  0.55817351  0.38916214  0.53651127  1  -0.023478  0  -0.088651  -0.131156  0  3.955694  0
C  C231  1  0.94182585  0.38916435  0.96349014  1  -0.023529  0  -0.088646  -0.131197  0  3.955851  0
C  C232  1  0.83932181  0.80731080  0.45163159  1  -0.06356  0  -0.09185  -0.089256  0  4.022468  0
C  C233  1  0.66067890  0.80731119  0.04836329  1  -0.064102  0  -0.091847  -0.089216  0  4.022491  0
C  C234  1  0.33931919  0.69269427  0.54836374  1  -0.064063  0  -0.091887  -0.089271  0  4.022369  0
C  C235  1  0.16067209  0.69268606  0.95163744  1  -0.064157  0  -0.091812  -0.089155  0  4.022526  0
C  C236  1  0.16067844  0.19269211  0.54836274  1  -0.064362  0  -0.091844  -0.089232  0  4.022347  0
C  C237  1  0.33932277  0.19268906  0.95163610  1  -0.064369  0  -0.091838  -0.089188  0  4.022362  0
C  C238  1  0.66067746  0.30730998  0.45163733  1  -0.064133  0  -0.091852  -0.0892  0  4.022385  0
C  C239  1  0.83932313  0.30731152  0.04836475  1  -0.064133  0  -0.091815  -0.089162  0  4.022347  0
C  C240  1  0.12319638  0.84755664  0.77995332  1  -0.046094  0  -0.09528  -0.090927  0  4.048922  0
C  C241  1  0.37680260  0.84755779  0.72004694  1  -0.046703  0  -0.095243  -0.090931  0  4.048944  0
C  C242  1  0.62320015  0.65244465  0.22004736  1  -0.046416  0  -0.095305  -0.091004  0  4.049103  0
C  C243  1  0.87679859  0.65243990  0.27995293  1  -0.046834  0  -0.095299  -0.090979  0  4.048827  0
C  C244  1  0.87680242  0.15243960  0.22004663  1  -0.046242  0  -0.095265  -0.090976  0  4.048862  0
C  C245  1  0.62320051  0.15243911  0.27995244  1  -0.046703  0  -0.09532  -0.091086  0  4.048964  0
C  C246  1  0.37680368  0.34755760  0.77995483  1  -0.046191  0  -0.095273  -0.090911  0  4.048854  0
C  C247  1  0.12319734  0.34755701  0.72004814  1  -0.046349  0  -0.095209  -0.090837  0  4.048909  0
C  C248  1  0.04836244  0.76065447  0.68203555  1  0.01708  0  -0.088634  -0.11057  0  3.969302  0
C  C249  1  0.45163952  0.76065238  0.81795898  1  0.017049  0  -0.088698  -0.110879  0  3.969317  0
C  C250  1  0.54836343  0.73934623  0.31796167  1  0.016978  0  -0.088703  -0.11078  0  3.969481  0
C  C251  1  0.95163593  0.73934657  0.18204267  1  0.016553  0  -0.088659  -0.110619  0  3.969448  0
C  C252  1  0.95163996  0.23934444  0.31796103  1  0.017048  0  -0.088666  -0.11071  0  3.969294  0
C  C253  1  0.54836503  0.23934452  0.18203647  1  0.017036  0  -0.088673  -0.11068  0  3.969375  0
C  C254  1  0.45163825  0.26065268  0.68203772  1  0.017021  0  -0.088662  -0.110726  0  3.969284  0
C  C255  1  0.04836145  0.26065502  0.81796402  1  0.017055  0  -0.088673  -0.110702  0  3.969232  0
C  C256  1  0.51279468  0.97541200  0.46379605  1  -0.030409  0  -0.167212  -0.171781  0  3.928937  0
C  C257  1  0.98720224  0.97541002  0.03620691  1  -0.00143  0  -0.167247  -0.171804  0  3.929001  0
C  C258  1  0.01279654  0.52458874  0.53620674  1  -0.001458  0  -0.167215  -0.171661  0  3.92899  0
C  C259  1  0.48720498  0.52458823  0.96379535  1  -0.001574  0  -0.167217  -0.171861  0  3.929062  0
C  C260  1  0.48720270  0.02458892  0.53620670  1  -0.001442  0  -0.167233  -0.171719  0  3.929046  0
C  C261  1  0.01279298  0.02458756  0.96379640  1  -0.030429  0  -0.167213  -0.171811  0  3.929045  0
C  C262  1  0.98720442  0.47541284  0.46379546  1  -0.030364  0  -0.167189  -0.171826  0  3.92913  0
C  C263  1  0.51279526  0.47541269  0.03620685  1  -0.030396  0  -0.167138  -0.171564  0  3.928905  0
C  C264  1  0.89779861  0.88095056  0.46649603  1  -0.025971  0  -0.083367  -0.059771  0  3.985458  0
C  C265  1  0.60220632  0.88094964  0.03349558  1  -0.025963  0  -0.083259  -0.059761  0  3.98533  0
C  C266  1  0.39779390  0.61905378  0.53349994  1  -0.026084  0  -0.083314  -0.059778  0  3.985338  0
C  C267  1  0.10219818  0.61904966  0.96650451  1  -0.025882  0  -0.083332  -0.059795  0  3.985453  0
C  C268  1  0.10220594  0.11905169  0.53349774  1  -0.025957  0  -0.083325  -0.059735  0  3.985363  0
C  C269  1  0.39779680  0.11905060  0.96649875  1  -0.025914  0  -0.083384  -0.05987  0  3.985447  0
C  C270  1  0.60220132  0.38095047  0.46650169  1  -0.025934  0  -0.083365  -0.059863  0  3.985375  0
C  C271  1  0.89779416  0.38095192  0.03349936  1  -0.02592  0  -0.083373  -0.059761  0  3.985332  0
C  C272  1  0.11380224  0.76718983  0.74078732  1  -0.039254  0  -0.092475  -0.079747  0  4.034156  0
C  C273  1  0.38619684  0.76719171  0.75921003  1  -0.039241  0  -0.092497  -0.079642  0  4.034225  0
C  C274  1  0.61380455  0.73281014  0.25921054  1  -0.039258  0  -0.092469  -0.079688  0  4.034248  0
C  C275  1  0.88619194  0.73280864  0.24079210  1  -0.038686  0  -0.09248  -0.079794  0  4.034303  0
C  C276  1  0.88619657  0.23280641  0.25921038  1  -0.039209  0  -0.092491  -0.079671  0  4.034142  0
C  C277  1  0.61380699  0.23280453  0.24078711  1  -0.039312  0  -0.092455  -0.079682  0  4.034254  0
C  C278  1  0.38619569  0.26719145  0.74078996  1  -0.039216  0  -0.092509  -0.079731  0  4.034132  0
C  C279  1  0.11380328  0.26719227  0.75921290  1  -0.039219  0  -0.092501  -0.079802  0  4.034264  0
N  N280  1  0.66630120  0.83564156  0.64472381  1  -1.253774  0  -0.371011  -0.302575  0  3.572174  0
N  N281  1  0.83369906  0.83564167  0.85527707  1  -1.253549  0  -0.37104  -0.302644  0  3.572044  0
N  N282  1  0.16629966  0.66435901  0.35527637  1  -1.253703  0  -0.371022  -0.302509  0  3.572047  0
N  N283  1  0.33369852  0.66435873  0.14472331  1  -1.253647  0  -0.371034  -0.302628  0  3.57208  0
N  N284  1  0.33369689  0.16435935  0.35527670  1  -1.253797  0  -0.371005  -0.302598  0  3.572063  0
N  N285  1  0.16630047  0.16436057  0.14472288  1  -1.25366  0  -0.371027  -0.30257  0  3.572204  0
N  N286  1  0.83369843  0.33564190  0.64472246  1  -1.253613  0  -0.371026  -0.302622  0  3.572184  0
N  N287  1  0.66630172  0.33564352  0.85527832  1  -1.2537  0  -0.371029  -0.302621  0  3.57217  0
N  N288  1  0.62598105  0.87673144  0.53061462  1  -1.239047  0  -0.248421  0.036613  0  3.796493  0
N  N289  1  0.87401845  0.87673039  0.96938687  1  -1.238533  0  -0.248519  0.036452  0  3.796587  0
N  N290  1  0.12598266  0.62326784  0.46938662  1  -1.238185  0  -0.248494  0.036584  0  3.796544  0
N  N291  1  0.37401916  0.62326797  0.03061525  1  -1.238487  0  -0.248419  0.036503  0  3.796588  0
N  N292  1  0.37401920  0.12326880  0.46938532  1  -1.238995  0  -0.248428  0.036512  0  3.79651  0
N  N293  1  0.12597893  0.12326852  0.03061645  1  -1.238991  0  -0.248406  0.03663  0  3.7966  0
N  N294  1  0.87401974  0.37673174  0.53061333  1  -1.238542  0  -0.248493  0.036505  0  3.796659  0
N  N295  1  0.62597893  0.37673161  0.96938638  1  -1.239074  0  -0.248447  0.03648  0  3.796767  0
O  O296  1  0.83603191  0.71055916  0.70580932  1  -1.161328  0  -0.329006  -0.572745  0  2.36675  0
O  O297  1  0.66397065  0.71055065  0.79419083  1  -1.161151  0  -0.328966  -0.572661  0  2.366636  0
O  O298  1  0.33603512  0.78944191  0.29418714  1  -1.161431  0  -0.328979  -0.572705  0  2.366656  0
O  O299  1  0.16396220  0.78944592  0.20581271  1  -1.161389  0  -0.328976  -0.572707  0  2.366736  0
O  O300  1  0.16396546  0.28943574  0.29418501  1  -1.161058  0  -0.329019  -0.572817  0  2.366633  0
O  O301  1  0.33603605  0.28943423  0.20581248  1  -1.160961  0  -0.329027  -0.5728  0  2.366666  0
O  O302  1  0.66396154  0.21056234  0.70581562  1  -1.161019  0  -0.329042  -0.572755  0  2.3665  0
O  O303  1  0.83603517  0.21056768  0.79418612  1  -1.160569  0  -0.329036  -0.572869  0  2.366561  0
O  O304  1  0.83624775  0.96866702  0.70470913  1  -1.15962  0  -0.341632  -0.600339  0  2.372618  0
O  O305  1  0.66375665  0.96866986  0.79528855  1  -1.159715  0  -0.341684  -0.600348  0  2.372555  0
O  O306  1  0.33625127  0.53133205  0.29528901  1  -1.159797  0  -0.341625  -0.600361  0  2.37255  0
O  O307  1  0.16375066  0.53133406  0.20470881  1  -1.159617  0  -0.341644  -0.600404  0  2.372738  0
O  O308  1  0.16375321  0.03132989  0.29528801  1  -1.159641  0  -0.341653  -0.600335  0  2.372668  0
O  O309  1  0.33624789  0.03133105  0.20471027  1  -1.159634  0  -0.341617  -0.600351  0  2.372744  0
O  O310  1  0.66375256  0.46866753  0.70471094  1  -1.159695  0  -0.341636  -0.600358  0  2.372725  0
O  O311  1  0.83624958  0.46866886  0.79528777  1  -1.159728  0  -0.341606  -0.600352  0  2.372781  0
O  O312  1  0.81096956  0.60818012  0.61695435  1  -1.167124  0  -0.320267  -0.552756  0  2.175772  0
O  O313  1  0.68903313  0.60817442  0.88305072  1  -1.167401  0  -0.320364  -0.552911  0  2.175564  0
O  O314  1  0.31097139  0.89182165  0.38304151  1  -1.167096  0  -0.320325  -0.552746  0  2.175742  0
O  O315  1  0.18902939  0.89182080  0.11695510  1  -1.167231  0  -0.320277  -0.552721  0  2.175796  0
O  O316  1  0.18903714  0.39181278  0.38303661  1  -1.167063  0  -0.320239  -0.552666  0  2.175855  0
O  O317  1  0.31097142  0.39181381  0.11696158  1  -1.167169  0  -0.320273  -0.552702  0  2.175968  0
O  O318  1  0.68903101  0.10818327  0.61696349  1  -1.167179  0  -0.320247  -0.552644  0  2.175742  0
O  O319  1  0.81096368  0.10818947  0.88303643  1  -1.166882  0  -0.320291  -0.552726  0  2.175837  0
O  O320  1  0.95738056  0.06695767  0.69067346  1  -1.163778  0  -0.318412  -0.536048  0  2.10321  0
O  O321  1  0.54262135  0.06695399  0.80933089  1  -1.163715  0  -0.31849  -0.536084  0  2.103457  0
O  O322  1  0.45738434  0.43304412  0.30932305  1  -1.16382  0  -0.318422  -0.53608  0  2.10347  0
O  O323  1  0.04262059  0.43304422  0.19066060  1  -1.163802  0  -0.318509  -0.536143  0  2.103262  0
O  O324  1  0.04261825  0.93304525  0.30933772  1  -1.163798  0  -0.318488  -0.536072  0  2.103399  0
O  O325  1  0.45738176  0.93304292  0.19066512  1  -1.163935  0  -0.318384  -0.535969  0  2.103547  0
O  O326  1  0.54261949  0.56695746  0.69066230  1  -1.163771  0  -0.318518  -0.536169  0  2.10302  0
O  O327  1  0.95738396  0.56695803  0.80933485  1  -1.16387  0  -0.318481  -0.53613  0  2.10312  0
