# generated using pymatgen
data_Al6H82(C7O3)13
_symmetry_space_group_name_H-M   'P 1'
_cell_length_a   13.14413985
_cell_length_b   13.01945135
_cell_length_c   28.34151215
_cell_angle_alpha   91.01294739
_cell_angle_beta   90.89150583
_cell_angle_gamma   59.76962773
_symmetry_Int_Tables_number   1
_chemical_formula_structural   Al6H82(C7O3)13
_chemical_formula_sum   'Al6 H82 C91 O39'
_cell_volume   4189.71881689
_cell_formula_units_Z   1
loop_
 _symmetry_equiv_pos_site_id
 _symmetry_equiv_pos_as_xyz
  1  'x, y, z'
loop_
 _atom_site_type_symbol
 _atom_site_label
 _atom_site_symmetry_multiplicity
 _atom_site_fract_x
 _atom_site_fract_y
 _atom_site_fract_z
 _atom_site_occupancy
 _atom_site_pbe_bader_charge
 _atom_site_pbe_bader_spin_density
 _atom_site_pbe_cm5_charge
 _atom_site_pbe_ddec_charge
 _atom_site_pbe_ddec_spin_density
 _atom_site_pbe_ddec_sum_bond_order
 _atom_site_pbe_magmom
Al  Al0  1  0.40546469  0.17993549  0.50244571  1  2.48745  0  0.396908  1.685256  0  2.553318  0
Al  Al1  1  0.64975402  0.93127527  0.50102195  1  2.473937  0  0.507038  1.65858  0  2.515419  0
Al  Al2  1  0.42591049  0.92332814  0.49980670  1  2.476938  0  0.507758  1.65802  0  2.515264  0
Al  Al3  1  0.92299825  0.15170395  0.99826282  1  2.490623  0  0.397639  1.682571  0  2.555558  0
Al  Al4  1  0.91657235  0.40193676  0.00170123  1  2.479647  0  0.506228  1.66315  0  2.506532  0
Al  Al5  1  0.68605130  0.40635184  0.00267946  1  2.478994  0  0.505048  1.661381  0  2.514049  0
H  H6  1  0.03517914  0.09777252  0.69530598  1  0.050575  0  0.10229  0.111121  0  0.974686  0
H  H7  1  0.89000055  0.54193019  0.70660313  1  0.158853  0  0.108868  0.126491  0  1.007666  0
H  H8  1  0.49710783  0.17075874  0.71329562  1  0.034993  0  0.094366  0.094176  0  0.98471  0
H  H9  1  0.65917075  0.33220893  0.69417676  1  0.028924  0  0.094529  0.0895  0  0.998681  0
H  H10  1  0.52009599  0.34798462  0.70530504  1  0.050358  0  0.099344  0.103583  0  0.969029  0
H  H11  1  0.54652684  0.39231653  0.78390268  1  0.051188  0  0.096413  0.098588  0  0.972969  0
H  H12  1  0.69709998  0.34177774  0.77522676  1  0.020518  0  0.089438  0.085687  0  1.016616  0
H  H13  1  0.82919932  0.15628223  0.71464131  1  0.030967  0  0.107195  0.054777  0  0.974774  0
H  H14  1  0.79879453  0.01819134  0.79255237  1  0.046438  0  0.10317  0.116395  0  0.979442  0
H  H15  1  0.61973846  0.03185244  0.72707006  1  0.08296  0  0.094925  0.093642  0  1.036824  0
H  H16  1  0.58701703  0.09178307  0.80661511  1  0.020308  0  0.09399  0.088824  0  1.012423  0
H  H17  1  0.03844252  0.08862335  0.77828766  1  0.060825  0  0.099862  0.104283  0  0.971048  0
H  H18  1  0.85428861  0.11646723  0.79564267  1  0.045511  0  0.097449  0.105595  0  1.004147  0
H  H19  1  0.48344729  0.74728097  0.20437196  1  0.037141  0  0.098194  0.101533  0  0.971392  0
H  H20  1  0.46974328  0.78983536  0.28548849  1  0.041949  0  0.100601  0.105788  0  0.979955  0
H  H21  1  0.75272341  0.50205115  0.30236141  1  0.064384  0  0.098738  0.105561  0  0.986852  0
H  H22  1  0.59763375  0.56812752  0.29678401  1  0.035282  0  0.095653  0.095056  0  0.976396  0
H  H23  1  0.62290383  0.52566920  0.21562447  1  0.025578  0  0.092999  0.091218  0  0.982987  0
H  H24  1  0.77595536  0.47005401  0.22180169  1  0.090997  0  0.091001  0.097009  0  1.039998  0
H  H25  1  0.76433658  0.77967881  0.28668352  1  0.066909  0  0.098774  0.106484  0  0.994027  0
H  H26  1  0.84793491  0.62267340  0.28955982  1  0.060988  0  0.107026  0.120855  0  0.979658  0
H  H27  1  0.74888609  0.77233351  0.20530655  1  0.073596  0  0.103093  0.047323  0  0.993307  0
H  H28  1  0.93759005  0.24271415  0.77636564  1  0.007212  0  0.08927  0.080758  0  1.020211  0
H  H29  1  0.50479797  0.69479079  0.78152130  1  0.096962  0  0.110077  0.114598  0  0.978405  0
H  H30  1  0.53569551  0.87795966  0.27763313  1  0.022549  0  0.09307  0.092573  0  0.995151  0
H  H31  1  0.54051800  0.84357333  0.19689795  1  0.029953  0  0.094174  0.093135  0  1.008142  0
H  H32  1  0.28092099  0.24050265  0.20298256  1  0.053841  0  0.102102  0.115886  0  0.970041  0
H  H33  1  0.25557608  0.26752667  0.28446048  1  0.071833  0  0.100154  0.104934  0  1.001481  0
H  H34  1  0.00391983  0.20325138  0.28382951  1  0.05048  0  0.114254  0.076748  0  0.994555  0
H  H35  1  0.31573090  0.97457233  0.26953835  1  0.058943  0  0.109674  0.056924  0  0.989933  0
H  H36  1  0.58836646  0.53846658  0.70360287  1  0.086061  0  0.108729  0.105806  0  0.985875  0
H  H37  1  0.22878503  0.97653982  0.19619598  1  0.042169  0  0.10037  0.115989  0  0.970077  0
H  H38  1  0.36561795  0.11602391  0.28820336  1  0.081982  0  0.095498  0.094954  0  0.997174  0
H  H39  1  0.25462370  0.25347159  0.71509158  1  0.028331  0  0.097972  0.033888  0  0.964756  0
H  H40  1  0.35437304  0.08363802  0.20703644  1  0.021202  0  0.092869  0.093335  0  1.002264  0
H  H41  1  0.08293353  0.06166506  0.21720773  1  0.046362  0  0.098359  0.10627  0  1.007365  0
H  H42  1  0.79474278  0.97418070  0.27940831  1  0.081078  0  0.103259  0.118452  0  0.982395  0
H  H43  1  0.69810981  0.29087549  0.30181773  1  0.031135  0  0.098924  0.103824  0  0.967971  0
H  H44  1  0.81999474  0.14545432  0.30612533  1  0.029907  0  0.094737  0.09468  0  0.999096  0
H  H45  1  0.84849754  0.13202335  0.22458833  1  0.027818  0  0.088851  0.079125  0  1.048428  0
H  H46  1  0.81033899  0.40409109  0.74925113  1  0.077083  0  0.098254  0.085956  0  1.039411  0
H  H47  1  0.74527730  0.28351605  0.22209093  1  0.055076  0  0.097564  0.105721  0  0.991643  0
H  H48  1  0.47348953  0.20256979  0.27663684  1  0.025214  0  0.094312  0.098468  0  1.011023  0
H  H49  1  0.49002237  0.32322380  0.29608849  1  0.039583  0  0.098042  0.101408  0  0.970703  0
H  H50  1  0.17067108  0.33137943  0.78907816  1  0.035176  0  0.098126  0.103401  0  0.975686  0
H  H51  1  0.47646645  0.26706154  0.20039774  1  0.035747  0  0.097615  0.098443  0  0.998249  0
H  H52  1  0.65407251  0.98624667  0.28067660  1  0.033668  0  0.103566  0.119546  0  0.996958  0
H  H53  1  0.53683463  0.35481333  0.21981619  1  0.039799  0  0.095191  0.09533  0  0.977734  0
H  H54  1  0.24786413  0.01161067  0.80413200  1  0.039604  0  0.09864  0.100204  0  0.97547  0
H  H55  1  0.25320286  0.97312266  0.72244967  1  0.037378  0  0.100858  0.107607  0  0.960297  0
H  H56  1  0.97370816  0.25404527  0.69566569  1  0.050817  0  0.092936  0.092447  0  0.995509  0
H  H57  1  0.98790139  0.58851067  0.77467852  1  0.046506  0  0.098328  0.09556  0  1.007086  0
H  H58  1  0.93088678  0.57719828  0.83060322  1  0.078793  0  0.101098  0.103646  0  0.999368  0
H  H59  1  0.96442495  0.69287091  0.82149415  1  0.088866  0  0.115429  0.12549  0  0.961285  0
H  H60  1  0.11831989  0.35336613  0.65613041  1  0.594944  0  0.323816  0.359406  0  0.89575  0
H  H61  1  0.34685514  0.03276184  0.71879252  1  0.043715  0  0.096137  0.097197  0  1.004757  0
H  H62  1  0.77411793  0.91063069  0.68382019  1  0.059733  0  0.092485  0.091286  0  1.012446  0
H  H63  1  0.81880339  0.88601700  0.74477478  1  0.046449  0  0.085983  0.07691  0  1.05334  0
H  H64  1  0.92479522  0.81368004  0.69937653  1  0.0526  0  0.105215  0.113183  0  0.967832  0
H  H65  1  0.61625263  0.89541540  0.80605486  1  0.074438  0  0.102715  0.105014  0  1.003971  0
H  H66  1  0.48413624  0.88695588  0.80236401  1  0.041039  0  0.100042  0.098018  0  0.993976  0
H  H67  1  0.48602881  0.01241360  0.77871227  1  0.091392  0  0.105341  0.109298  0  1.024747  0
H  H68  1  0.88848326  0.59300851  0.17317591  1  0.614522  0  0.326154  0.35468  0  0.895335  0
H  H69  1  0.08961835  0.44053862  0.30027776  1  0.044922  0  0.089926  0.088373  0  1.024954  0
H  H70  1  0.13559259  0.34598063  0.35121839  1  0.06538  0  0.096095  0.100653  0  1.020031  0
H  H71  1  0.99558912  0.47844750  0.35058069  1  0.064897  0  0.106694  0.114495  0  0.974029  0
H  H72  1  0.30777465  0.10512255  0.79740669  1  0.04201  0  0.091825  0.085977  0  1.00678  0
H  H73  1  0.99167163  0.44802827  0.22492490  1  0.627468  0  0.301446  0.351303  0  0.980449  0
H  H74  1  0.95168558  0.29687167  0.17551689  1  0.605362  0  0.314012  0.349332  0  0.917048  0
H  H75  1  0.01115111  0.02700279  0.27959710  1  -0.000998  0  0.08314  0.065455  0  1.060658  0
H  H76  1  0.04875085  0.05956142  0.33714848  1  0.054178  0  0.096365  0.095315  0  1.007976  0
H  H77  1  0.07231268  0.91475302  0.32374803  1  0.062446  0  0.1095  0.119793  0  0.963481  0
H  H78  1  0.93132754  0.93366477  0.22631092  1  0.034432  0  0.089526  0.078228  0  1.026407  0
H  H79  1  0.89929388  0.00141873  0.16887790  1  0.052763  0  0.096949  0.097374  0  1.009007  0
H  H80  1  0.95253514  0.84594021  0.17439017  1  0.082296  0  0.110932  0.119397  0  0.961692  0
H  H81  1  0.63625014  0.98686579  0.13336298  1  0.093887  0  0.101035  0.105321  0  1.003651  0
H  H82  1  0.51976558  0.13769328  0.14141023  1  0.037231  0  0.094272  0.093638  0  1.012489  0
H  H83  1  0.02697213  0.37944008  0.76707825  1  0.060646  0  0.100882  0.111568  0  0.991674  0
H  H84  1  0.49271243  0.01824501  0.15077384  1  0.04886  0  0.100256  0.102453  0  1.001202  0
H  H85  1  0.48241758  0.23965134  0.79155497  1  0.021159  0  0.092943  0.092709  0  0.977106  0
H  H86  1  0.32155347  0.37584757  0.47631796  1  0.566365  0  0.292281  0.384104  0  0.921556  0
H  H87  1  0.02179122  0.95558781  0.02489226  1  0.58936  0  0.292012  0.382383  0  0.92385  0
C  C88  1  0.61339956  0.10221900  0.56832663  1  1.680206  0  0.279413  0.717517  0  4.160898  0
C  C89  1  0.66277096  0.69117489  0.65004928  1  -0.487446  0  -0.010134  0.006519  0  4.042015  0
C  C90  1  0.25930128  0.05277517  0.73033786  1  -0.012719  0  -0.15237  -0.18918  0  3.850116  0
C  C91  1  0.61336225  0.78531272  0.56481305  1  1.637336  0  0.28432  0.72447  0  4.146763  0
C  C92  1  0.04179326  0.17112199  0.71182169  1  -0.041463  0  -0.156321  -0.194129  0  3.858316  0
C  C93  1  0.02644427  0.17351174  0.76581357  1  -0.024813  0  -0.152902  -0.191479  0  3.852375  0
C  C94  1  0.07756217  0.22406310  0.88346888  1  0.308533  0  -0.049496  -0.221325  0  3.972685  0
C  C95  1  0.16323274  0.15689424  0.70101966  1  0.08987  0  -0.004686  0.099134  0  3.906116  0
C  C96  1  0.24124386  0.08518743  0.78337369  1  -0.05091  0  -0.153981  -0.197525  0  3.872043  0
C  C97  1  0.11857099  0.19661840  0.79108837  1  0.142605  0  0.001124  0.174104  0  3.902604  0
C  C98  1  0.11753446  0.30381222  0.76796393  1  -0.037423  0  -0.155797  -0.257688  0  3.830219  0
C  C99  1  0.64374318  0.72691889  0.60957277  1  0.272705  0  -0.039075  -0.207414  0  3.951302  0
C  C100  1  0.16277404  0.27247455  0.71708518  1  0.494461  0  0.005624  0.192994  0  3.830869  0
C  C101  1  0.09526159  0.21520384  0.84123092  1  -0.600349  0  -0.014223  -0.016516  0  4.006028  0
C  C102  1  0.19265468  0.13512483  0.65144899  1  -0.44475  0  -0.015875  -0.027068  0  4.039241  0
C  C103  1  0.28361574  0.09259007  0.56589061  1  1.681646  0  0.281201  0.716207  0  4.162234  0
C  C104  1  0.22531081  0.11764296  0.61070259  1  0.152431  0  -0.042943  -0.211056  0  3.965202  0
C  C105  1  0.58340990  0.12784746  0.73113601  1  -0.075236  0  -0.1573  -0.193834  0  3.842069  0
C  C106  1  0.61323261  0.29968368  0.71606688  1  -0.032993  0  -0.152728  -0.194981  0  3.869869  0
C  C107  1  0.62816568  0.31883312  0.76918014  1  -0.04936  0  -0.154905  -0.193444  0  3.853161  0
C  C108  1  0.67434811  0.22898079  0.88918326  1  0.057428  0  -0.051229  -0.227153  0  3.974172  0
C  C109  1  0.66317182  0.16533905  0.70535044  1  0.115653  0  -0.001609  0.105499  0  3.87384  0
C  C110  1  0.75932633  0.50085357  0.74716566  1  -0.030539  0  -0.068827  -0.065494  0  3.641248  0
C  C111  1  0.57109297  0.16540994  0.78366741  1  -0.005268  0  -0.156448  -0.195735  0  3.871259  0
C  C112  1  0.66201229  0.20361635  0.79633943  1  0.137547  0  0.001178  0.179579  0  3.903167  0
C  C113  1  0.78478306  0.10365309  0.77980461  1  -0.030012  0  -0.159452  -0.275434  0  3.844298  0
C  C114  1  0.79165278  0.10168341  0.72563728  1  0.499982  0  0.008541  0.136607  0  3.817319  0
C  C115  1  0.60856258  0.10207161  0.43446998  1  1.69065  0  0.27623  0.721775  0  4.158054  0
C  C116  1  0.66475919  0.22098363  0.84676907  1  -0.316529  0  -0.009394  -0.00636  0  3.999966  0
C  C117  1  0.65861929  0.14417946  0.65531803  1  -0.529671  0  -0.010856  -0.003808  0  4.018058  0
C  C118  1  0.64556635  0.12686642  0.61399534  1  0.243267  0  -0.0444  -0.213881  0  3.956073  0
C  C119  1  0.54581385  0.79015318  0.27017050  1  -0.011107  0  -0.151885  -0.194458  0  3.83301  0
C  C120  1  0.67467062  0.57026341  0.28355178  1  -0.037115  0  -0.15213  -0.189318  0  3.830452  0
C  C121  1  0.71199771  0.58802085  0.79179827  1  0.085534  0  -0.004482  0.04196  0  3.807756  0
C  C122  1  0.68894342  0.54646761  0.22971041  1  -0.049838  0  -0.158133  -0.185295  0  3.834714  0
C  C123  1  0.70306413  0.60645459  0.11149788  1  0.265526  0  -0.050005  -0.235145  0  3.950821  0
C  C124  1  0.65949365  0.69393940  0.29507710  1  0.127535  0  0.003549  0.172581  0  3.897156  0
C  C125  1  0.55254716  0.76587503  0.21629737  1  -0.020943  0  -0.152068  -0.18547  0  3.850447  0
C  C126  1  0.67389310  0.65734376  0.20369927  1  0.142329  0  -0.004176  0.09205  0  3.904732  0
C  C127  1  0.61051002  0.78696610  0.43474117  1  1.617156  0  0.284835  0.730527  0  4.143736  0
C  C128  1  0.76903030  0.68735530  0.22117681  1  0.443564  0  0.007159  0.190548  0  3.784517  0
C  C129  1  0.76666548  0.69755637  0.27528852  1  -0.044  0  -0.152892  -0.254671  0  3.804668  0
C  C130  1  0.68624222  0.63280957  0.15328194  1  -0.559131  0  -0.001004  0.003966  0  4.001535  0
C  C131  1  0.64926871  0.71623957  0.34563205  1  0.045043  0  0.000452  0.007438  0  3.974232  0
C  C132  1  0.63718064  0.57465303  0.72203581  1  -0.032152  0  -0.066807  -0.064559  0  3.626799  0
C  C133  1  0.63700759  0.73808604  0.38776350  1  -0.273055  0  -0.047917  -0.227702  0  3.954532  0
C  C134  1  0.27805470  0.17748976  0.27362997  1  -0.097831  0  -0.154704  -0.197744  0  3.863003  0
C  C135  1  0.05936958  0.24366482  0.28139148  1  0.526908  0  0.006275  0.016743  0  3.780777  0
C  C136  1  0.05713736  0.27458919  0.22814335  1  1.00674  0  0.152439  0.415969  0  3.851436  0
C  C137  1  0.11274014  0.20169397  0.11159766  1  -0.428362  0  -0.048509  -0.223128  0  3.959318  0
C  C138  1  0.18816079  0.14681821  0.29518356  1  0.106528  0  -0.004344  0.047718  0  3.862786  0
C  C139  1  0.28712813  0.09148461  0.43336459  1  1.696556  0  0.277836  0.719831  0  4.157745  0
C  C140  1  0.27779950  0.16660265  0.21935055  1  0.001309  0  -0.15539  -0.179732  0  3.84529  0
C  C141  1  0.16484951  0.16682293  0.20302665  1  0.087822  0  -0.003251  0.070448  0  3.887745  0
C  C142  1  0.17126419  0.05098726  0.21953966  1  -0.021107  0  -0.161613  -0.274879  0  3.884577  0
C  C143  1  0.68174866  0.65324375  0.69747231  1  0.075081  0  0.010039  0.074675  0  3.776044  0
C  C144  1  0.21904020  0.02531406  0.27039266  1  0.481751  0  0.009381  0.136881  0  3.82229  0
C  C145  1  0.14404713  0.18239204  0.15267312  1  0.143659  0  -0.016252  -0.008916  0  4.03247  0
C  C146  1  0.20790912  0.13089309  0.34550869  1  -0.471293  0  -0.011625  0.000984  0  4.035436  0
C  C147  1  0.23520590  0.11237971  0.38693610  1  0.180484  0  -0.040291  -0.206788  0  3.929171  0
C  C148  1  0.70136561  0.03140038  0.27001496  1  -0.045139  0  -0.157021  -0.327212  0  3.838226  0
C  C149  1  0.73677957  0.20035816  0.28709216  1  -0.012295  0  -0.152298  -0.187369  0  3.838715  0
C  C150  1  0.75779486  0.19792449  0.23362640  1  -0.015024  0  -0.157214  -0.183752  0  3.845418  0
C  C151  1  0.80470139  0.57776904  0.72380234  1  -0.079717  0  -0.077276  -0.154417  0  3.614115  0
C  C152  1  0.69949141  0.20939378  0.11540321  1  -0.306396  0  -0.046821  -0.219736  0  3.953321  0
C  C153  1  0.65235117  0.15262261  0.29602154  1  0.164176  0  0.001751  0.188879  0  3.895229  0
C  C154  1  0.59034521  0.66208157  0.76494144  1  -0.068225  0  -0.078317  -0.153418  0  3.65548  0
C  C155  1  0.68811622  0.04659326  0.21613075  1  0.964976  0  0.167336  0.378599  0  3.795343  0
C  C156  1  0.66938613  0.17380979  0.20491073  1  0.124525  0  -0.003216  0.047729  0  3.864217  0
C  C157  1  0.54487943  0.26696409  0.22300282  1  -0.018035  0  -0.153603  -0.177346  0  3.861708  0
C  C158  1  0.53046994  0.24130771  0.27464866  1  -0.016587  0  -0.155549  -0.19642  0  3.844016  0
C  C159  1  0.68349475  0.19010911  0.15561113  1  -0.005343  0  -0.0136  -0.0022  0  4.048284  0
C  C160  1  0.64331046  0.13763399  0.34604990  1  -0.432354  0  -0.015357  -0.019207  0  4.002535  0
C  C161  1  0.63371201  0.12427741  0.38774798  1  0.113982  0  -0.050138  -0.219884  0  3.969545  0
C  C162  1  0.03852749  0.23658154  0.93141586  1  1.655768  0  0.27836  0.715221  0  4.161784  0
C  C163  1  0.75869957  0.66686838  0.76674473  1  0.583201  0  0.088314  0.151928  0  3.724195  0
C  C164  1  0.74062410  0.52750745  0.93280808  1  1.645472  0  0.281247  0.722831  0  4.153996  0
C  C165  1  0.63506351  0.74078726  0.74195474  1  0.603988  0  0.095298  0.175002  0  3.718404  0
C  C166  1  0.70634645  0.24288922  0.93643010  1  1.659147  0  0.280637  0.717992  0  4.164957  0
C  C167  1  0.05645107  0.22941454  0.06585168  1  1.668867  0  0.275769  0.716795  0  4.161995  0
C  C168  1  0.73001678  0.55163511  0.06541009  1  1.643143  0  0.284937  0.731604  0  4.14226  0
C  C169  1  0.72815971  0.23479412  0.07003312  1  1.659834  0  0.273254  0.719354  0  4.16206  0
C  C170  1  0.72672212  0.55583590  0.88359067  1  0.119173  0  -0.044637  -0.215996  0  3.951038  0
C  C171  1  0.93149155  0.63881417  0.80466899  1  0.337668  0  -0.134255  -0.175732  0  3.898113  0
C  C172  1  0.84446820  0.89622026  0.70911304  1  0.374288  0  -0.148823  -0.171083  0  3.955941  0
C  C173  1  0.53817784  0.91674985  0.78433443  1  0.333752  0  -0.13892  -0.177087  0  3.891737  0
C  C174  1  0.06049991  0.40496547  0.32864760  1  0.368416  0  -0.14871  -0.182832  0  3.937005  0
C  C175  1  0.07466613  0.99103080  0.30925793  1  0.414909  0  -0.145073  -0.177511  0  3.975544  0
C  C176  1  0.72229867  0.56455622  0.84065214  1  -0.404719  0  -0.015686  -0.001696  0  4.067641  0
C  C177  1  0.89653991  0.93363205  0.19060765  1  0.371438  0  -0.140259  -0.157196  0  3.941951  0
C  C178  1  0.55843033  0.04619862  0.15433466  1  0.36318  0  -0.147172  -0.176615  0  3.928109  0
O  O179  1  0.30527309  0.16981943  0.55043813  1  -1.21017  0  -0.202077  -0.537957  0  2.28257  0
O  O180  1  0.66188245  0.51255907  0.95216180  1  -1.2402  0  -0.229048  -0.59027  0  2.247501  0
O  O181  1  0.63177384  0.33723020  0.95944590  1  -1.263887  0  -0.245491  -0.610637  0  2.228078  0
O  O182  1  0.51020982  0.17301333  0.55394447  1  -1.223612  0  -0.205512  -0.551021  0  2.293007  0
O  O183  1  0.82526636  0.15833841  0.05215489  1  -1.228067  0  -0.215282  -0.572974  0  2.290279  0
O  O184  1  0.03414384  0.15448743  0.04691942  1  -1.21863  0  -0.210977  -0.562915  0  2.287903  0
O  O185  1  0.02816491  0.33251910  0.04947597  1  -1.248707  0  -0.243902  -0.604763  0  2.22995  0
O  O186  1  0.83034558  0.52267338  0.04806373  1  -1.241201  0  -0.22761  -0.591659  0  2.242096  0
O  O187  1  0.65376437  0.53002335  0.04625252  1  -1.243187  0  -0.225281  -0.584474  0  2.237195  0
O  O188  1  0.65302931  0.33612952  0.05232273  1  -1.25339  0  -0.243668  -0.609868  0  2.242033  0
O  O189  1  0.84117097  0.32204929  0.00169459  1  -1.610989  0  -0.392039  -1.274507  0  2.295199  0
O  O190  1  0.68416836  0.81081227  0.45485487  1  -1.240244  0  -0.227653  -0.589968  0  2.245475  0
O  O191  1  0.69113308  0.00706266  0.54679629  1  -1.253465  0  -0.242228  -0.606119  0  2.230463  0
O  O192  1  0.68400083  0.81594957  0.54813562  1  -1.244936  0  -0.226363  -0.587505  0  2.2468  0
O  O193  1  0.51567760  0.80680241  0.54576640  1  -1.24256  0  -0.227003  -0.589884  0  2.245481  0
O  O194  1  0.31263622  0.99114548  0.54659275  1  -1.247819  0  -0.239321  -0.600881  0  2.235207  0
O  O195  1  0.31022652  0.16835805  0.44969422  1  -1.216894  0  -0.210817  -0.565121  0  2.295471  0
O  O196  1  0.51126780  0.17760768  0.45237683  1  -1.224485  0  -0.213558  -0.570678  0  2.286443  0
O  O197  1  0.68635865  0.00347482  0.45328939  1  -1.253223  0  -0.241689  -0.604148  0  2.235105  0
O  O198  1  0.81355661  0.72081732  0.78857414  1  -1.075533  0  -0.201655  -0.190561  0  2.568654  0
O  O199  1  0.08857177  0.37227159  0.68839778  1  -1.110805  0  -0.399754  -0.511431  0  2.209864  0
O  O200  1  0.87347655  0.98804615  0.70664341  1  -1.036977  0  -0.243195  -0.226208  0  2.476093  0
O  O201  1  0.51220823  0.80883565  0.45214916  1  -1.2429  0  -0.226453  -0.588167  0  2.24332  0
O  O202  1  0.57204462  0.86237179  0.73820116  1  -1.062938  0  -0.205001  -0.191901  0  2.513875  0
O  O203  1  0.88589608  0.59787537  0.20761624  1  -1.134577  0  -0.38436  -0.492014  0  2.26753  0
O  O204  1  0.99984544  0.34627408  0.31065469  1  -1.062078  0  -0.236907  -0.202266  0  2.495675  0
O  O205  1  0.06857608  0.37445895  0.22084050  1  -1.14839  0  -0.39828  -0.553083  0  2.280862  0
O  O206  1  0.94841299  0.29158274  0.20986580  1  -1.13015  0  -0.386084  -0.537562  0  2.256156  0
O  O207  1  0.19276955  0.94690909  0.29457839  1  -1.05143  0  -0.239645  -0.214446  0  2.491228  0
O  O208  1  0.78147090  0.94847911  0.19166678  1  -1.04919  0  -0.223838  -0.257238  0  2.51936  0
O  O209  1  0.58692848  0.03899180  0.20383235  1  -1.041559  0  -0.221679  -0.255692  0  2.499522  0
O  O210  1  0.31017519  0.99375378  0.45339303  1  -1.256597  0  -0.242413  -0.605338  0  2.229172  0
O  O211  1  0.49452063  0.00982208  0.50077229  1  -1.613018  0  -0.391184  -1.273291  0  2.295128  0
O  O212  1  0.80669870  0.16521346  0.95108846  1  -1.214599  0  -0.201251  -0.540959  0  2.287563  0
O  O213  1  0.01072902  0.16252633  0.94532312  1  -1.212717  0  -0.200954  -0.535404  0  2.282525  0
O  O214  1  0.03115248  0.32485436  0.95582412  1  -1.254771  0  -0.247595  -0.615756  0  2.232793  0
O  O215  1  0.83402973  0.51388578  0.95358960  1  -1.249738  0  -0.233255  -0.597069  0  2.238819  0
O  O216  1  0.32273250  0.33543549  0.50476962  1  -1.351097  0  -0.578657  -0.997255  0  1.793375  0
O  O217  1  0.99900230  0.99630038  0.99506240  1  -1.373231  0  -0.577275  -0.994071  0  1.794373  0
