# generated using pymatgen
data_MnH4C6(SN2)2
_symmetry_space_group_name_H-M   'P 1'
_cell_length_a   5.68938085
_cell_length_b   6.41394276
_cell_length_c   6.41385864
_cell_angle_alpha   70.99988766
_cell_angle_beta   87.50179087
_cell_angle_gamma   87.50401883
_symmetry_Int_Tables_number   1
_chemical_formula_structural   MnH4C6(SN2)2
_chemical_formula_sum   'Mn1 H4 C6 S2 N4'
_cell_volume   220.98176336
_cell_formula_units_Z   1
loop_
 _symmetry_equiv_pos_site_id
 _symmetry_equiv_pos_as_xyz
  1  'x, y, z'
loop_
 _atom_site_type_symbol
 _atom_site_label
 _atom_site_symmetry_multiplicity
 _atom_site_fract_x
 _atom_site_fract_y
 _atom_site_fract_z
 _atom_site_occupancy
 _atom_site_hle17_ddec_charge
 _atom_site_hle17_ddec_spin_density
 _atom_site_hle17_ddec_sum_bond_order
 _atom_site_hle17_magmom
 _atom_site_hse06_10hf_ddec_charge
 _atom_site_hse06_10hf_ddec_spin_density
 _atom_site_hse06_10hf_ddec_sum_bond_order
 _atom_site_hse06_10hf_magmom
 _atom_site_hse06_ddec_charge
 _atom_site_hse06_ddec_spin_density
 _atom_site_hse06_ddec_sum_bond_order
 _atom_site_hse06_magmom
 _atom_site_pbe_cm5_charge
 _atom_site_pbe_ddec_charge
 _atom_site_pbe_ddec_spin_density
 _atom_site_pbe_ddec_sum_bond_order
 _atom_site_pbe_magmom
Mn  Mn0  1  0.99999027  0.49999336  0.49999078  1  0.911501  4.747304  2.175483  4.607  0.751072  4.655823  2.691582  4.439  0.811232  4.717577  2.62725  4.525  0.555827  0.703245  4.593547  2.739473  4.353
H  H1  1  0.33329373  0.07711606  0.73929221  1  0.084068  0.000551  0.964911  0.0  0.087817  0.001313  1.036571  0.001  0.089972  0.000937  1.035897  0.001  0.113145  0.086082  0.001698  1.03743  0.001
H  H2  1  0.33329197  0.73929326  0.07712424  1  0.083964  0.000554  0.964682  0.0  0.087682  0.001315  1.036417  0.001  0.089827  0.000939  1.035751  0.001  0.113056  0.085948  0.001701  1.037271  0.001
H  H3  1  0.66673211  0.92289692  0.26072304  1  0.08402  0.000556  0.964696  0.0  0.087767  0.001314  1.036402  0.001  0.089924  0.000937  1.035721  0.001  0.113122  0.086031  0.001699  1.03726  0.001
H  H4  1  0.66672687  0.26071628  0.92288000  1  0.084073  0.000552  0.964459  0.0  0.087767  0.001315  1.036182  0.001  0.08992  0.000939  1.035511  0.001  0.113092  0.086035  0.001701  1.037044  0.001
C  C5  1  0.52670007  0.34124238  0.34123366  1  0.297548  0.025136  4.001328  0.024  0.28108  0.034275  4.302448  0.03  0.304318  0.030002  4.317743  0.027  0.161587  0.2644  0.038718  4.290941  0.034
C  C6  1  0.47328224  0.65875188  0.65875394  1  0.297754  0.025136  4.001848  0.024  0.281315  0.034263  4.302927  0.03  0.304564  0.030002  4.318224  0.027  0.1617  0.264632  0.038713  4.291422  0.034
C  C7  1  0.18395914  0.04347481  0.85642952  1  0.083634  0.000869  3.670064  0.001  0.055736  0.003643  3.923161  0.003  0.05841  0.002404  3.940734  0.002  0.057771  0.053376  0.004988  3.912213  0.004
C  C8  1  0.18392901  0.85643951  0.04349000  1  0.083599  0.000859  3.671087  0.001  0.055753  0.003643  3.92419  0.003  0.058432  0.002406  3.941777  0.002  0.057877  0.053396  0.004984  3.913232  0.004
C  C9  1  0.81607174  0.95653970  0.14356472  1  0.083758  0.000853  3.670422  0.001  0.05579  0.003644  3.923543  0.003  0.058468  0.002404  3.941113  0.002  0.057794  0.053434  0.004988  3.912592  0.004
C  C10  1  0.81610240  0.14356692  0.95652873  1  0.083423  0.000871  3.671502  0.001  0.055722  0.003641  3.924444  0.003  0.05839  0.002407  3.94203  0.002  0.05788  0.053358  0.004983  3.913497  0.004
S  S11  1  0.26904467  0.28130055  0.28128698  1  -0.291201  0.046537  2.176884  0.029  -0.265204  0.062399  2.511373  0.034  -0.287365  0.051307  2.507102  0.027  -0.097948  -0.24712  0.073587  2.513649  0.041
S  S12  1  0.73091177  0.71867858  0.71869435  1  -0.291096  0.046534  2.177261  0.029  -0.265153  0.062403  2.511823  0.034  -0.287273  0.051303  2.507468  0.027  -0.097867  -0.247079  0.073588  2.514099  0.041
N  N13  1  0.71395968  0.38573948  0.38573872  1  -0.536345  0.024155  2.992645  0.005  -0.48399  0.029965  3.294776  0.005  -0.509834  0.022007  3.298856  -0.002  -0.394596  -0.464319  0.037327  3.291492  0.011
N  N14  1  0.28600675  0.61425804  0.61425787  1  -0.536664  0.024163  2.992747  0.005  -0.484356  0.029983  3.294891  0.005  -0.510186  0.022018  3.298912  -0.002  -0.39483  -0.464696  0.037347  3.291641  0.011
N  N15  1  0.99998842  0.18743692  0.81257240  1  -0.261047  0.027681  3.24305  0.019  -0.194464  0.03553  3.504935  0.024  -0.209459  0.031203  3.521489  0.02  -0.288856  -0.183427  0.040216  3.493866  0.028
N  N16  1  0.00002172  0.81257093  0.18743591  1  -0.260989  0.027689  3.243158  0.019  -0.194335  0.035529  3.505037  0.024  -0.209341  0.031205  3.521617  0.02  -0.288756  -0.183298  0.040216  3.493959  0.028
