# generated using pymatgen
data_Cu3H8C12N2O9
_symmetry_space_group_name_H-M   'P 1'
_cell_length_a   5.84189195
_cell_length_b   11.42863342
_cell_length_c   11.44251170
_cell_angle_alpha   86.30315178
_cell_angle_beta   79.32184771
_cell_angle_gamma   79.42089179
_symmetry_Int_Tables_number   1
_chemical_formula_structural   Cu3H8C12N2O9
_chemical_formula_sum   'Cu6 H16 C24 N4 O18'
_cell_volume   737.60085950
_cell_formula_units_Z   2
loop_
 _symmetry_equiv_pos_site_id
 _symmetry_equiv_pos_as_xyz
  1  'x, y, z'
loop_
 _atom_site_type_symbol
 _atom_site_label
 _atom_site_symmetry_multiplicity
 _atom_site_fract_x
 _atom_site_fract_y
 _atom_site_fract_z
 _atom_site_occupancy
 _atom_site_pbe_bader_charge
 _atom_site_pbe_bader_spin_density
 _atom_site_pbe_cm5_charge
 _atom_site_pbe_ddec_charge
 _atom_site_pbe_ddec_spin_density
 _atom_site_pbe_ddec_sum_bond_order
 _atom_site_pbe_magmom
Cu  Cu0  1  0.14704276  0.99785940  0.73849927  1  1.072604  0.538926  0.726393  0.848923  0.680521  2.322298  0.538
Cu  Cu1  1  0.35302386  0.26162102  0.00284394  1  1.075326  0.544149  0.728602  0.852169  0.687013  2.323703  0.543
Cu  Cu2  1  0.85228033  0.00271456  0.26204288  1  1.071015  -0.529886  0.726327  0.84837  -0.67247  2.323529  -0.529
Cu  Cu3  1  0.65110839  0.73912295  0.99786601  1  1.075926  0.5544  0.727256  0.852156  0.699505  2.321299  0.553
Cu  Cu4  1  0.24841213  0.98638102  0.01493634  1  1.122296  -0.520317  0.682166  1.047975  -0.650204  2.041617  -0.521
Cu  Cu5  1  0.74983965  0.01390934  0.98535971  1  1.125496  0.57609  0.681003  1.045234  0.715092  2.024531  0.576
H  H6  1  0.05250961  0.84857948  0.90572172  1  0.653647  0.000153  0.285645  0.377917  0.000499  0.971893  0.0
H  H7  1  0.44837983  0.09428001  0.15186742  1  0.650318  -7e-06  0.28594  0.378092  0.000129  0.971245  0.0
H  H8  1  0.94820351  0.15198541  0.09468954  1  0.648866  0.000327  0.284946  0.376731  0.000227  0.97381  0.0
H  H9  1  0.54955546  0.90570472  0.84857337  1  0.655454  0.000139  0.285527  0.378385  0.000777  0.970805  0.001
H  H10  1  0.11582211  0.23381183  0.81669194  1  0.641727  4e-06  0.278746  0.376702  1.6e-05  0.969034  0.0
H  H11  1  0.38489228  0.18349211  0.76612088  1  0.639478  -4.1e-05  0.278607  0.376697  1.5e-05  0.968895  0.0
H  H12  1  0.88519365  0.76569711  0.18319481  1  0.644969  -2.9e-05  0.2784  0.376663  7.7e-05  0.969087  0.0
H  H13  1  0.61571239  0.81616849  0.23349300  1  0.642047  9e-06  0.27854  0.377217  -5.9e-05  0.967845  0.0
H  H14  1  0.17303906  0.72519550  0.54871192  1  0.128158  -0.001326  0.11834  0.13264  -0.000699  0.9794  -0.001
H  H15  1  0.32595050  0.45149454  0.27421597  1  0.128218  0.002836  0.118096  0.131941  0.001463  0.980012  0.002
H  H16  1  0.82624511  0.27450578  0.45147914  1  0.127382  0.001278  0.118624  0.132932  0.000668  0.97947  0.001
H  H17  1  0.67447262  0.54792160  0.72456639  1  0.127497  0.002801  0.118366  0.132428  0.001461  0.97951  0.002
H  H18  1  0.82042219  0.75379554  0.71794956  1  0.124116  -0.000262  0.108855  0.125647  -0.000182  1.022938  0.0
H  H19  1  0.67901709  0.28242217  0.24613814  1  0.128062  -8.4e-05  0.108769  0.125597  -1.5e-05  1.022993  0.0
H  H20  1  0.17916200  0.24604402  0.28233786  1  0.128368  5.9e-05  0.108975  0.125993  -1.3e-05  1.022367  0.0
H  H21  1  0.32226145  0.71744561  0.75314585  1  0.125726  -0.000184  0.108628  0.125204  -9.2e-05  1.022501  0.0
C  C22  1  0.20833140  0.85679353  0.34235396  1  1.577892  0.000989  0.200577  0.529341  -0.000344  4.22943  0.002
C  C23  1  0.29176313  0.65797952  0.14276128  1  1.580659  -0.000987  0.200625  0.529444  0.000416  4.232176  -0.001
C  C24  1  0.79089444  0.14323310  0.65782513  1  1.576959  -0.000935  0.200859  0.529123  0.00035  4.23025  -0.002
C  C25  1  0.70907206  0.34206150  0.85685110  1  1.575141  -0.001361  0.200859  0.529325  9.3e-05  4.22857  -0.002
C  C26  1  0.99792644  0.85855386  0.43956011  1  0.494893  0.000914  0.090481  0.069445  0.000183  4.017146  0.001
C  C27  1  0.50177367  0.56061192  0.14082101  1  0.486601  -0.002803  0.090433  0.069695  -0.001396  4.015266  -0.002
C  C28  1  0.00136993  0.14123945  0.56066194  1  0.490255  -7.1e-05  0.090196  0.068894  0.000342  4.01854  -0.001
C  C29  1  0.49895235  0.43925055  0.85858709  1  0.471825  -0.002905  0.090153  0.069094  -0.001475  4.019438  -0.002
C  C30  1  0.01080682  0.78797651  0.54264924  1  -0.058582  -0.003423  -0.073989  -0.100895  -0.002501  4.000695  -0.002
C  C31  1  0.48846170  0.45754743  0.21154391  1  -0.054863  0.004046  -0.074439  -0.101126  0.002634  4.001678  0.003
C  C32  1  0.98855610  0.21179660  0.45756235  1  -0.052857  0.003335  -0.074494  -0.10166  0.002469  4.003241  0.002
C  C33  1  0.51223389  0.54213673  0.78757868  1  -0.047458  0.003888  -0.073951  -0.10121  0.002556  4.001605  0.003
C  C34  1  0.81836161  0.80320605  0.63332064  1  -0.006082  0.010264  -0.089731  -0.165221  0.006937  3.940719  0.008
C  C35  1  0.68100037  0.36702719  0.19658986  1  -0.005886  0.002925  -0.089765  -0.164346  0.002229  3.941936  0.004
C  C36  1  0.18102860  0.19666376  0.36698480  1  -0.007616  -0.009464  -0.089698  -0.164598  -0.006439  3.941455  -0.008
C  C37  1  0.32009851  0.63285317  0.80276176  1  0.001085  0.003148  -0.088911  -0.161878  0.002477  3.938907  0.004
C  C38  1  0.61378866  0.88869798  0.62300414  1  0.628092  -0.006574  0.102161  0.29112  -0.003421  4.037642  -0.007
C  C39  1  0.88573809  0.37736918  0.11109502  1  0.62517  0.009276  0.102441  0.291126  0.007138  4.034574  0.007
C  C40  1  0.38541864  0.11109247  0.37735277  1  0.631289  0.006438  0.103071  0.291873  0.003306  4.036414  0.006
C  C41  1  0.11571863  0.62278854  0.88858511  1  0.636151  0.008459  0.102386  0.291881  0.006673  4.035515  0.006
C  C42  1  0.60370033  0.95562743  0.51162538  1  0.511356  0.003702  0.110471  0.079769  0.000807  3.87613  0.004
C  C43  1  0.89641227  0.48863214  0.04412243  1  0.510521  0.004534  0.109518  0.079093  0.004199  3.876287  0.004
C  C44  1  0.39563402  0.04421632  0.48873194  1  0.543509  -0.003259  0.111162  0.080261  -0.000551  3.874768  -0.003
C  C45  1  0.10466518  0.51159245  0.95562654  1  0.540754  0.005012  0.111219  0.081437  0.004568  3.87472  0.005
N  N46  1  0.80035373  0.93640966  0.42579753  1  -1.188847  -0.099305  -0.344273  -0.284893  -0.06466  3.649915  -0.085
N  N47  1  0.69963024  0.57455300  0.06310672  1  -1.18487  0.102467  -0.343611  -0.285803  0.066335  3.644095  0.088
N  N48  1  0.19895646  0.06347589  0.57455234  1  -1.189912  0.100163  -0.345033  -0.28531  0.064849  3.651246  0.086
N  N49  1  0.30131571  0.42557976  0.93657848  1  -1.18759  0.101042  -0.344854  -0.286934  0.065445  3.64629  0.087
O  O50  1  0.06335753  0.93503183  0.90526618  1  -1.129247  0.076559  -0.586782  -0.839048  0.048913  2.406527  0.068
O  O51  1  0.43601340  0.09494588  0.06569319  1  -1.121604  0.077876  -0.584695  -0.836002  0.049785  2.401479  0.068
O  O52  1  0.93468197  0.06579871  0.09530431  1  -1.1216  -0.055216  -0.585063  -0.837313  -0.035888  2.401176  -0.049
O  O53  1  0.55892907  0.90533879  0.93503312  1  -1.129559  0.073175  -0.586293  -0.83904  0.047009  2.403421  0.066
O  O54  1  0.25039525  0.16936699  0.83070736  1  -1.286573  -0.001354  -0.597463  -0.835991  -0.000591  2.143857  0.0
O  O55  1  0.75045432  0.83011480  0.16898706  1  -1.291281  -0.000638  -0.596115  -0.835739  -0.000397  2.147833  0.0
O  O56  1  0.17830816  0.92972943  0.25244337  1  -1.109543  -0.090537  -0.336188  -0.557661  -0.056691  2.445555  -0.082
O  O57  1  0.32321839  0.74831758  0.07077869  1  -1.113632  0.10195  -0.336111  -0.556955  0.064116  2.441763  0.091
O  O58  1  0.82080812  0.07078361  0.74806833  1  -1.110981  0.093095  -0.336045  -0.55812  0.058075  2.445797  0.084
O  O59  1  0.67875955  0.25199979  0.92971820  1  -1.107662  0.094135  -0.336013  -0.556316  0.058571  2.443984  0.085
O  O60  1  0.40116773  0.79169362  0.35194014  1  -1.151323  -0.018844  -0.296244  -0.484883  -0.011827  2.136379  -0.016
O  O61  1  0.09836953  0.64790580  0.20741640  1  -1.156106  0.020752  -0.297726  -0.487163  0.012937  2.138422  0.018
O  O62  1  0.59809802  0.20820222  0.64788293  1  -1.153408  0.01936  -0.296678  -0.484948  0.012066  2.13834  0.016
O  O63  1  0.90201892  0.35167954  0.79173020  1  -1.15263  0.019081  -0.295479  -0.483749  0.011926  2.138266  0.016
O  O64  1  0.45042148  0.90065285  0.71911278  1  -1.126055  0.083219  -0.336448  -0.504088  0.053297  2.527903  0.076
O  O65  1  0.04879931  0.28091071  0.09922041  1  -1.124281  0.090569  -0.338963  -0.508704  0.057762  2.52728  0.082
O  O66  1  0.54845047  0.09902762  0.28111788  1  -1.122015  -0.080727  -0.337991  -0.505907  -0.052157  2.531158  -0.074
O  O67  1  0.95325405  0.71938412  0.90053029  1  -1.126781  0.088998  -0.340317  -0.511034  0.056145  2.533125  0.082
