# generated using pymatgen
data_DyH21(C9O2)3
_symmetry_space_group_name_H-M   'P 1'
_cell_length_a   7.57349026
_cell_length_b   13.18126771
_cell_length_c   13.29880000
_cell_angle_alpha   116.56490478
_cell_angle_beta   101.49370719
_cell_angle_gamma   100.76462725
_symmetry_Int_Tables_number   1
_chemical_formula_structural   DyH21(C9O2)3
_chemical_formula_sum   'Dy2 H42 C54 O12'
_cell_volume   1104.48027991
_cell_formula_units_Z   2
loop_
 _symmetry_equiv_pos_site_id
 _symmetry_equiv_pos_as_xyz
  1  'x, y, z'
loop_
 _atom_site_type_symbol
 _atom_site_label
 _atom_site_symmetry_multiplicity
 _atom_site_fract_x
 _atom_site_fract_y
 _atom_site_fract_z
 _atom_site_occupancy
 _atom_site_hle17_bader_spin_density
 _atom_site_hle17_ddec_charge
 _atom_site_hle17_ddec_spin_density
 _atom_site_hle17_ddec_sum_bond_order
 _atom_site_hle17_magmom
 _atom_site_hse06_10hf_bader_spin_density
 _atom_site_hse06_10hf_ddec_charge
 _atom_site_hse06_10hf_ddec_spin_density
 _atom_site_hse06_10hf_ddec_sum_bond_order
 _atom_site_hse06_10hf_magmom
 _atom_site_hse06_bader_spin_density
 _atom_site_hse06_ddec_charge
 _atom_site_hse06_ddec_spin_density
 _atom_site_hse06_ddec_sum_bond_order
 _atom_site_hse06_magmom
 _atom_site_pbe_bader_charge
 _atom_site_pbe_bader_spin_density
 _atom_site_pbe_cm5_charge
 _atom_site_pbe_ddec_charge
 _atom_site_pbe_ddec_spin_density
 _atom_site_pbe_ddec_sum_bond_order
 _atom_site_pbe_magmom
Dy  Dy0  1  0.50300491  0.99949094  0.00005443  1  0  2.214837  0  1.634561  0  0  2.072428  0  2.092668  0  0  2.12583  0  2.048889  0  2.148142  0  1.512641  2.030978  0  2.128734  0
Dy  Dy1  1  0.00350715  0.00041464  0.00058102  1  0  2.214448  0  1.636332  0  0  2.071497  0  2.095264  0  0  2.125325  0  2.050757  0  2.14758  0  1.512216  2.030131  0  2.131208  0
H  H2  1  0.57571011  0.17488504  0.35003807  1  0  0.115689  0  0.980957  0  0  0.124299  0  1.044225  0  0  0.127722  0  1.044133  0  0.097845  0  0.104615  0.121873  0  1.044476  0
H  H3  1  0.39764197  0.17228372  0.82508948  1  0  0.117102  0  0.97605  0  0  0.126146  0  1.038591  0  0  0.129496  0  1.038541  0  0.08986  0  0.105617  0.123788  0  1.038789  0
H  H4  1  0.90088636  0.82516173  0.17523891  1  0  0.11781  0  0.978506  0  0  0.125904  0  1.042008  0  0  0.12933  0  1.04185  0  0.089563  0  0.105484  0.123508  0  1.042257  0
H  H5  1  0.22573057  0.65067345  0.82587202  1  0  0.11547  0  0.980774  0  0  0.124271  0  1.043693  0  0  0.127671  0  1.043595  0  0.112307  0  0.105557  0.12189  0  1.043895  0
H  H6  1  0.07506863  0.34932864  0.17523479  1  0  0.1153  0  0.981128  0  0  0.123993  0  1.044236  0  0  0.127345  0  1.044261  0  0.11906  0  0.105048  0.121631  0  1.044402  0
H  H7  1  0.72538359  0.82780952  0.65286078  1  0  0.115485  0  0.97671  0  0  0.123656  0  1.040424  0  0  0.127061  0  1.04029  0  0.106607  0  0.105222  0.121238  0  1.04072  0
H  H8  1  0.23836650  0.03187990  0.37959620  1  0  0.098326  0  0.940269  0  0  0.109576  0  1.001031  0  0  0.112003  0  0.999873  0  0.093141  0  0.107175  0.107795  0  1.001914  0
H  H9  1  0.20728693  0.34932149  0.96719707  1  0  0.097025  0  0.940497  0  0  0.108634  0  1.000921  0  0  0.111006  0  0.999805  0  0.078394  0  0.106909  0.10693  0  1.001662  0
H  H10  1  0.70628197  0.96819010  0.34760850  1  0  0.099036  0  0.938335  0  0  0.110345  0  0.998886  0  0  0.112691  0  0.997812  0  0.078753  0  0.107591  0.108573  0  0.999773  0
H  H11  1  0.85672880  0.61907683  0.65109315  1  0  0.098469  0  0.940427  0  0  0.109397  0  1.001443  0  0  0.111824  0  1.000293  0  0.105894  0  0.10726  0.107623  0  1.002312  0
H  H12  1  0.73764228  0.38090471  0.03204084  1  0  0.097818  0  0.940052  0  0  0.109339  0  1.000302  0  0  0.111668  0  0.999247  0  0.095177  0  0.107693  0.107595  0  1.00116  0
H  H13  1  0.35811560  0.65063056  0.61787572  1  0  0.098387  0  0.940146  0  0  0.109947  0  1.000274  0  0  0.112385  0  0.999129  0  0.104636  0  0.107497  0.108164  0  1.001145  0
H  H14  1  0.73827927  0.25844747  0.54213264  1  0  0.083177  0  1.002684  0  0  0.093095  0  1.067912  0  0  0.094427  0  1.069831  0  0.064483  0  0.09613  0.092116  0  1.066654  0
H  H15  1  0.47781031  0.28209087  0.74182364  1  0  0.083426  0  1.003722  0  0  0.093167  0  1.069252  0  0  0.094555  0  1.071159  0  0.061379  0  0.095828  0.092141  0  1.068023  0
H  H16  1  0.97961762  0.74164756  0.28362484  1  0  0.083698  0  1.003106  0  0  0.093593  0  1.068246  0  0  0.094946  0  1.07022  0  0.070242  0  0.09642  0.09256  0  1.067005  0
H  H17  1  0.19602333  0.45806077  0.71651203  1  0  0.08319  0  1.004697  0  0  0.092905  0  1.070177  0  0  0.094273  0  1.072187  0  0.082133  0  0.096126  0.091879  0  1.0689  0
H  H18  1  0.23801814  0.54196098  0.25849853  1  0  0.082995  0  1.005084  0  0  0.093365  0  1.069776  0  0  0.094696  0  1.071773  0  0.057789  0  0.096162  0.092367  0  1.068514  0
H  H19  1  0.69583999  0.71778879  0.45968579  1  0  0.083589  0  1.003684  0  0  0.093256  0  1.06916  0  0  0.094557  0  1.07115  0  0.101376  0  0.096016  0.092269  0  1.067884  0
H  H20  1  0.94122280  0.29548624  0.73263463  1  0  0.087704  0  0.960035  0  0  0.098949  0  1.019195  0  0  0.101098  0  1.019578  0  0.086103  0  0.098137  0.097439  0  1.018952  0
H  H21  1  0.64326296  0.43631452  0.70597856  1  0  0.08768  0  0.958212  0  0  0.09908  0  1.017056  0  0  0.101223  0  1.017427  0  0.077955  0  0.098194  0.097576  0  1.016818  0
H  H22  1  0.14548229  0.70460253  0.43709254  1  0  0.08723  0  0.961643  0  0  0.099249  0  1.020005  0  0  0.101366  0  1.020358  0  0.059422  0  0.098397  0.097742  0  1.01976  0
H  H23  1  0.20869654  0.26728358  0.56275375  1  0  0.087163  0  0.960974  0  0  0.099116  0  1.019387  0  0  0.101297  0  1.019665  0  0.075477  0  0.098124  0.097595  0  1.019171  0
H  H24  1  0.44148528  0.73270331  0.29549673  1  0  0.087444  0  0.961112  0  0  0.098848  0  1.020185  0  0  0.10102  0  1.020525  0  0.087785  0  0.098096  0.097339  0  1.019931  0
H  H25  1  0.70696301  0.56355889  0.26958964  1  0  0.087459  0  0.960745  0  0  0.099349  0  1.018976  0  0  0.101551  0  1.019268  0  0.067521  0  0.098281  0.097825  0  1.018742  0
H  H26  1  0.83191377  0.17582960  0.82370441  1  0  0.107  0  0.949973  0  0  0.115686  0  1.011591  0  0  0.118447  0  1.011112  0  0.102321  0  0.105438  0.113686  0  1.012004  0
H  H27  1  0.65511551  0.64893000  0.82559573  1  0  0.108402  0  0.949816  0  0  0.116383  0  1.011924  0  0  0.119148  0  1.011438  0  0.106365  0  0.106217  0.11437  0  1.012364  0
H  H28  1  0.15593716  0.82430564  0.64780965  1  0  0.107139  0  0.950822  0  0  0.116155  0  1.011984  0  0  0.118848  0  1.011567  0  0.09179  0  0.105988  0.114186  0  1.01236  0
H  H29  1  0.00774385  0.17544892  0.35116286  1  0  0.106001  0  0.95144  0  0  0.114409  0  1.013473  0  0  0.11715  0  1.013001  0  0.092677  0  0.105321  0.112396  0  1.013913  0
H  H30  1  0.33241699  0.82453619  0.17570946  1  0  0.106233  0  0.950792  0  0  0.115047  0  1.01245  0  0  0.117706  0  1.012127  0  0.09435  0  0.105364  0.113112  0  1.01278  0
H  H31  1  0.50604514  0.35095413  0.17657227  1  0  0.107981  0  0.949855  0  0  0.116762  0  1.011345  0  0  0.119444  0  1.010944  0  0.09077  0  0.105913  0.114793  0  1.011761  0
H  H32  1  0.51403842  0.02053539  0.72127302  1  0  0.09629  0  0.960536  0  0  0.106297  0  1.020877  0  0  0.108656  0  1.020148  0  0.065391  0  0.104578  0.104607  0  1.021453  0
H  H33  1  0.49452749  0.70306640  0.97973830  1  0  0.096918  0  0.962542  0  0  0.107048  0  1.022775  0  0  0.109382  0  1.02204  0  0.080031  0  0.105449  0.105368  0  1.023352  0
H  H34  1  0.99343061  0.97963380  0.70069700  1  0  0.096779  0  0.96132  0  0  0.107613  0  1.020517  0  0  0.109978  0  1.019783  0  0.062177  0  0.105482  0.105846  0  1.021189  0
H  H35  1  0.79149495  0.27721528  0.29757300  1  0  0.096377  0  0.962122  0  0  0.106593  0  1.022176  0  0  0.108932  0  1.02147  0  0.053678  0  0.105277  0.104932  0  1.022687  0
H  H36  1  0.01439052  0.72280468  0.02042247  1  0  0.096047  0  0.962102  0  0  0.106994  0  1.021288  0  0  0.109331  0  1.020594  0  0.077734  0  0.105189  0.105312  0  1.02184  0
H  H37  1  0.29130727  0.29688386  0.27661632  1  0  0.096316  0  0.963147  0  0  0.106389  0  1.023434  0  0  0.108816  0  1.022568  0  0.043013  0  0.105064  0.104658  0  1.024088  0
H  H38  1  0.30842832  0.98452906  0.53122324  1  0  0.085704  0  1.004261  0  0  0.094979  0  1.069893  0  0  0.096311  0  1.07231  0  0.063938  0  0.094514  0.093999  0  1.06828  0
H  H39  1  0.32558497  0.54852194  0.01472709  1  0  0.08587  0  1.00303  0  0  0.095135  0  1.068724  0  0  0.096443  0  1.071163  0  0.06627  0  0.094551  0.094154  0  1.06713  0
H  H40  1  0.82372858  0.01559903  0.54663269  1  0  0.086254  0  1.003465  0  0  0.095375  0  1.069101  0  0  0.096756  0  1.071403  0  0.085218  0  0.09483  0.094328  0  1.067565  0
H  H41  1  0.77623953  0.46768953  0.45186572  1  0  0.084999  0  1.005512  0  0  0.094784  0  1.07073  0  0  0.096043  0  1.07321  0  0.069162  0  0.094733  0.093856  0  1.069073  0
H  H42  1  0.80856464  0.53239120  0.98427510  1  0  0.085767  0  1.005813  0  0  0.094965  0  1.071572  0  0  0.096234  0  1.0741  0  0.094451  0  0.094657  0.094032  0  1.069877  0
H  H43  1  0.27714548  0.45142028  0.46621852  1  0  0.086734  0  1.00308  0  0  0.095951  0  1.068625  0  0  0.097364  0  1.070941  0  0.091194  0  0.095144  0.094884  0  1.067104  0
C  C44  1  0.29504783  0.08360442  0.21668180  1  0  0.713133  0  3.887684  0  0  0.673359  0  4.170881  0  0  0.710624  0  4.158069  0  1.49255  0  0.204911  0.648197  0  4.178366  0
C  C45  1  0.21008442  0.13269813  0.91652541  1  0  0.710398  0  3.891765  0  0  0.669268  0  4.177031  0  0  0.706508  0  4.164271  0  1.493995  0  0.203517  0.644141  0  4.184485  0
C  C46  1  0.71153395  0.91636460  0.13298870  1  0  0.712833  0  3.887198  0  0  0.672962  0  4.170435  0  0  0.710226  0  4.157559  0  1.484481  0  0.204529  0.647811  0  4.177936  0
C  C47  1  0.07721161  0.78301949  0.86748221  1  0  0.712718  0  3.890791  0  0  0.672247  0  4.174675  0  0  0.709484  0  4.161893  0  1.487749  0  0.204908  0.647103  0  4.182154  0
C  C48  1  0.79419664  0.21691558  0.08448022  1  0  0.715506  0  3.888567  0  0  0.675393  0  4.171702  0  0  0.71263  0  4.158901  0  1.488974  0  0.206741  0.650261  0  4.179162  0
C  C49  1  0.57730703  0.86726107  0.78379799  1  0  0.712104  0  3.889526  0  0  0.67117  0  4.175007  0  0  0.708421  0  4.162126  0  1.510072  0  0.204776  0.646019  0  4.18251  0
C  C50  1  0.43214143  0.12253141  0.33173614  1  0  -0.224256  0  3.655109  0  0  -0.239708  0  3.909524  0  0  -0.252252  0  3.925327  0  -0.079739  0  -0.09513  -0.231576  0  3.899002  0
C  C51  1  0.30749015  0.20799367  0.87710889  1  0  -0.225359  0  3.653711  0  0  -0.240161  0  3.907927  0  0  -0.252594  0  3.923711  0  0.073448  0  -0.095201  -0.232122  0  3.897409  0
C  C52  1  0.80956915  0.87749034  0.20918114  1  0  -0.227041  0  3.654517  0  0  -0.241603  0  3.90854  0  0  -0.254117  0  3.924267  0  -0.090188  0  -0.096202  -0.233513  0  3.898042  0
C  C53  1  0.09939361  0.66809100  0.79117103  1  0  -0.224819  0  3.65864  0  0  -0.240044  0  3.912914  0  0  -0.252622  0  3.928691  0  -0.022343  0  -0.096455  -0.231906  0  3.902388  0
C  C54  1  0.93131946  0.33188696  0.12310748  1  0  -0.225115  0  3.660027  0  0  -0.240316  0  3.914103  0  0  -0.252895  0  3.929896  0  -0.05307  0  -0.095665  -0.232181  0  3.903564  0
C  C55  1  0.59955347  0.79201467  0.66913942  1  0  -0.221305  0  3.654049  0  0  -0.235825  0  3.90914  0  0  -0.248263  0  3.924917  0  -0.01247  0  -0.094734  -0.227768  0  3.898612  0
C  C56  1  0.38381202  0.08931555  0.40760501  1  0  -0.019379  0  3.687499  0  0  -0.042643  0  3.931895  0  0  -0.036679  0  3.948128  0  -0.018719  0  -0.062373  -0.04645  0  3.920885  0
C  C57  1  0.29403576  0.31842279  0.90997163  1  0  -0.017588  0  3.687822  0  0  -0.041582  0  3.932184  0  0  -0.035493  0  3.948341  0  -0.13375  0  -0.062007  -0.045476  0  3.921259  0
C  C58  1  0.79433096  0.91075892  0.31823881  1  0  -0.019609  0  3.685113  0  0  -0.042964  0  3.928901  0  0  -0.036889  0  3.945103  0  0.027977  0  -0.062472  -0.046822  0  3.917957  0
C  C59  1  0.97481814  0.59162124  0.68110583  1  0  -0.017819  0  3.689511  0  0  -0.041195  0  3.933179  0  0  -0.035105  0  3.949232  0  -0.088966  0  -0.062514  -0.045097  0  3.922304  0
C  C60  1  0.88319945  0.40836923  0.08951654  1  0  -0.016739  0  3.688913  0  0  -0.040078  0  3.932618  0  0  -0.033921  0  3.948727  0  -0.046908  0  -0.062405  -0.044008  0  3.921731  0
C  C61  1  0.47575619  0.68153730  0.59155608  1  0  -0.020913  0  3.691042  0  0  -0.044413  0  3.935537  0  0  -0.038403  0  3.951664  0  -0.098548  0  -0.063032  -0.048265  0  3.924611  0
C  C62  1  0.50857127  0.11751731  0.52173845  1  0  0.05842  0  3.825844  0  0  0.081345  0  4.053823  0  0  0.079055  0  4.077265  0  -0.034288  0  -0.015379  0.082783  0  4.037875  0
C  C63  1  0.39076070  0.40426751  0.88213421  1  0  0.059196  0  3.823981  0  0  0.082608  0  4.051781  0  0  0.080302  0  4.075241  0  -0.043759  0  -0.014521  0.084058  0  4.035822  0
C  C64  1  0.89086666  0.88258308  0.40417591  1  0  0.058891  0  3.826475  0  0  0.081968  0  4.054104  0  0  0.079635  0  4.077602  0  -0.03488  0  -0.015523  0.083442  0  4.038103  0
C  C65  1  0.98617881  0.47765160  0.59505105  1  0  0.056506  0  3.832075  0  0  0.080692  0  4.058503  0  0  0.078344  0  4.081986  0  -0.012728  0  -0.015346  0.082166  0  4.042527  0
C  C66  1  0.00856538  0.52235406  0.11745458  1  0  0.058409  0  3.83009  0  0  0.081214  0  4.058231  0  0  0.078862  0  4.081734  0  -0.041015  0  -0.015676  0.082695  0  4.042236  0
C  C67  1  0.48666109  0.59565951  0.47788967  1  0  0.057621  0  3.826946  0  0  0.080209  0  4.0558  0  0  0.077867  0  4.079335  0  0.009043  0  -0.015476  0.081684  0  4.039779  0
C  C68  1  0.68854168  0.20565954  0.58064861  1  0  -0.107051  0  3.717747  0  0  -0.124622  0  3.956303  0  0  -0.125901  0  3.977457  0  -0.022612  0  -0.08521  -0.123603  0  3.94194  0
C  C69  1  0.48156880  0.37425707  0.79466032  1  0  -0.109403  0  3.715602  0  0  -0.127227  0  3.954529  0  0  -0.128576  0  3.975675  0  -0.073188  0  -0.086012  -0.126165  0  3.94017  0
C  C70  1  0.98270676  0.79444711  0.37492971  1  0  -0.107141  0  3.716247  0  0  -0.124906  0  3.95509  0  0  -0.126221  0  3.976201  0  -0.031853  0  -0.085511  -0.123842  0  3.940776  0
C  C71  1  0.10777827  0.41921599  0.62476894  1  0  -0.10565  0  3.720188  0  0  -0.123607  0  3.958384  0  0  -0.125003  0  3.979659  0  -0.040715  0  -0.085089  -0.122499  0  3.94393  0
C  C72  1  0.18858743  0.58080933  0.20561241  1  0  -0.107595  0  3.718769  0  0  -0.125687  0  3.957301  0  0  -0.127038  0  3.978661  0  -0.032043  0  -0.0856  -0.124615  0  3.942797  0
C  C73  1  0.60745123  0.62562706  0.42039854  1  0  -0.106644  0  3.716263  0  0  -0.124032  0  3.95522  0  0  -0.12531  0  3.976448  0  -0.060256  0  -0.084851  -0.122994  0  3.94079  0
C  C74  1  0.80279962  0.22674540  0.68846160  1  0  -0.077252  0  3.775923  0  0  -0.087198  0  4.022596  0  0  -0.09009  0  4.044094  0  -0.08845  0  -0.089666  -0.085257  0  4.00794  0
C  C75  1  0.57450274  0.46142078  0.77424268  1  0  -0.076571  0  3.774227  0  0  -0.08625  0  4.020532  0  0  -0.089109  0  4.041949  0  -0.010298  0  -0.089762  -0.084325  0  4.005921  0
C  C76  1  0.07587074  0.77337197  0.46166711  1  0  -0.077697  0  3.777189  0  0  -0.08835  0  4.024248  0  0  -0.091139  0  4.045731  0  -0.047197  0  -0.090019  -0.086424  0  4.009614  0
C  C77  1  0.11427448  0.31126310  0.53787474  1  0  -0.078366  0  3.776718  0  0  -0.088648  0  4.023309  0  0  -0.091575  0  4.044877  0  -0.082458  0  -0.08963  -0.086667  0  4.00858  0
C  C78  1  0.30307523  0.68875061  0.22666744  1  0  -0.077581  0  3.775224  0  0  -0.087515  0  4.021747  0  0  -0.090437  0  4.043277  0  -0.062962  0  -0.089839  -0.085545  0  4.007059  0
C  C79  1  0.61316385  0.53844905  0.31279732  1  0  -0.07761  0  3.776203  0  0  -0.087861  0  4.022957  0  0  -0.090761  0  4.044388  0  -0.046476  0  -0.089515  -0.085909  0  4.00834  0
C  C80  1  0.74171443  0.16010993  0.73983639  1  0  -0.055648  0  3.708001  0  0  -0.072244  0  3.959376  0  0  -0.07322  0  3.979192  0  -0.08022  0  -0.081881  -0.071395  0  3.945837  0
C  C81  1  0.58087605  0.58052248  0.84084644  1  0  -0.055828  0  3.707806  0  0  -0.071976  0  3.959373  0  0  -0.072839  0  3.978892  0  -0.083363  0  -0.082119  -0.071203  0  3.946013  0
C  C82  1  0.08145134  0.84002531  0.57967329  1  0  -0.055837  0  3.709328  0  0  -0.07269  0  3.961123  0  0  -0.073578  0  3.980903  0  -0.058172  0  -0.082687  -0.071883  0  3.947592  0
C  C83  1  0.00136001  0.25940632  0.41938099  1  0  -0.055012  0  3.707928  0  0  -0.071714  0  3.959761  0  0  -0.072598  0  3.979467  0  -0.041226  0  -0.083465  -0.070911  0  3.946279  0
C  C84  1  0.24205818  0.74058773  0.16000424  1  0  -0.054455  0  3.707148  0  0  -0.071263  0  3.958634  0  0  -0.072146  0  3.978459  0  -0.02475  0  -0.082518  -0.070483  0  3.945081  0
C  C85  1  0.50032986  0.41936344  0.26027344  1  0  -0.056231  0  3.707161  0  0  -0.073183  0  3.959272  0  0  -0.073972  0  3.978841  0  -0.086374  0  -0.082815  -0.072469  0  3.945903  0
C  C86  1  0.56352891  0.07265936  0.68218354  1  0  -0.072658  0  3.768755  0  0  -0.084427  0  4.020116  0  0  -0.086573  0  4.040488  0  -0.022957  0  -0.090649  -0.082995  0  4.006275  0
C  C87  1  0.49131076  0.61103782  0.92766627  1  0  -0.072117  0  3.770532  0  0  -0.084042  0  4.021605  0  0  -0.086076  0  4.041854  0  -0.065068  0  -0.090621  -0.082667  0  4.007803  0
C  C88  1  0.99069914  0.92746873  0.60947558  1  0  -0.072544  0  3.769477  0  0  -0.085001  0  4.020697  0  0  -0.087138  0  4.041087  0  -0.016706  0  -0.091551  -0.083523  0  4.00687  0
C  C89  1  0.88046593  0.31671418  0.38915152  1  0  -0.071073  0  3.76916  0  0  -0.08298  0  4.020264  0  0  -0.085051  0  4.040543  0  -0.033934  0  -0.090176  -0.081601  0  4.006495  0
C  C90  1  0.06384092  0.68328969  0.07248070  1  0  -0.071558  0  3.770167  0  0  -0.084119  0  4.021184  0  0  -0.086193  0  4.041458  0  -0.082703  0  -0.090492  -0.082726  0  4.007418  0
C  C91  1  0.38026863  0.38888920  0.31661358  1  0  -0.071634  0  3.770788  0  0  -0.083652  0  4.022106  0  0  -0.085733  0  4.042298  0  -0.011485  0  -0.09054  -0.082263  0  4.008372  0
C  C92  1  0.44753610  0.05238312  0.57520330  1  0  -0.11489  0  3.728041  0  0  -0.132842  0  3.966812  0  0  -0.134864  0  3.988637  0  -0.046962  0  -0.087634  -0.131293  0  3.951931  0
C  C93  1  0.39589492  0.52403317  0.94733288  1  0  -0.114979  0  3.728869  0  0  -0.133264  0  3.967933  0  0  -0.13525  0  3.989751  0  -0.042931  0  -0.08735  -0.131734  0  3.953046  0
C  C94  1  0.89493893  0.94772620  0.52277473  1  0  -0.116331  0  3.728655  0  0  -0.134174  0  3.967544  0  0  -0.136191  0  3.989416  0  -0.107914  0  -0.08797  -0.13258  0  3.952633  0
C  C95  1  0.87146212  0.42381814  0.47593830  1  0  -0.114174  0  3.728741  0  0  -0.133104  0  3.967192  0  0  -0.135073  0  3.989102  0  -0.081624  0  -0.087911  -0.131599  0  3.952263  0
C  C96  1  0.94769549  0.57619825  0.05217868  1  0  -0.116047  0  3.732536  0  0  -0.13408  0  3.971633  0  0  -0.136092  0  3.993595  0  -0.098888  0  -0.087888  -0.132536  0  3.956645  0
C  C97  1  0.37196401  0.47590100  0.42331461  1  0  -0.114037  0  3.728658  0  0  -0.13185  0  3.967495  0  0  -0.133914  0  3.989303  0  -0.139827  0  -0.086705  -0.130247  0  3.952644  0
O  O98  1  0.35003072  0.10347317  0.13869183  1  0  -0.819099  0  2.053944  0  0  -0.761548  0  2.306877  0  0  -0.788333  0  2.295912  0  -1.207281  0  -0.425732  -0.742042  0  2.313432  0
O  O99  1  0.24542046  0.03387178  0.89707273  1  0  -0.821725  0  2.059545  0  0  -0.763687  0  2.313624  0  0  -0.790345  0  2.302394  0  -1.205997  0  -0.428971  -0.744167  0  2.320099  0
O  O100  1  0.74675302  0.89644581  0.03515592  1  0  -0.81956  0  2.053311  0  0  -0.762344  0  2.306824  0  0  -0.78907  0  2.295801  0  -1.201783  0  -0.425842  -0.742898  0  2.313401  0
O  O101  1  0.21240781  0.86197620  0.96574363  1  0  -0.821086  0  2.061727  0  0  -0.763278  0  2.315978  0  0  -0.790069  0  2.305003  0  -1.217166  0  -0.429641  -0.743759  0  2.322507  0
O  O102  1  0.85045287  0.13797406  0.10379780  1  0  -0.821994  0  2.060232  0  0  -0.764254  0  2.314295  0  0  -0.791013  0  2.303132  0  -1.20618  0  -0.429937  -0.744685  0  2.320754  0
O  O103  1  0.71135801  0.96615354  0.86321405  1  0  -0.822458  0  2.059158  0  0  -0.76398  0  2.312424  0  0  -0.790746  0  2.301325  0  -1.208842  0  -0.429658  -0.744504  0  2.319042  0
O  O104  1  0.11950235  0.03174675  0.19177307  1  0  -0.693433  0  2.007641  0  0  -0.642863  0  2.252083  0  0  -0.669004  0  2.243797  0  -1.179579  0  -0.385493  -0.624506  0  2.257155  0
O  O105  1  0.08774501  0.16097227  0.96834954  1  0  -0.688769  0  2.001961  0  0  -0.638463  0  2.246676  0  0  -0.664561  0  2.238508  0  -1.185653  0  -0.381095  -0.62017  0  2.251663  0
O  O106  1  0.58777498  0.96819189  0.15985187  1  0  -0.69236  0  2.0077  0  0  -0.642023  0  2.252252  0  0  -0.668083  0  2.243942  0  -1.17702  0  -0.385627  -0.623679  0  2.25734  0
O  O107  1  0.92542597  0.80726430  0.84067344  1  0  -0.692947  0  2.005977  0  0  -0.642016  0  2.249898  0  0  -0.668169  0  2.24171  0  -1.174726  0  -0.384222  -0.623663  0  2.254916  0
O  O108  1  0.61817461  0.19267434  0.03342511  1  0  -0.693861  0  2.004673  0  0  -0.643516  0  2.249308  0  0  -0.669581  0  2.240982  0  -1.181956  0  -0.385249  -0.62517  0  2.254401  0
O  O109  1  0.42672725  0.83888684  0.80733544  1  0  -0.691657  0  2.000568  0  0  -0.641395  0  2.245192  0  0  -0.667443  0  2.237042  0  -1.176279  0  -0.382269  -0.623068  0  2.250178  0
