# generated using pymatgen
data_ZnH15C27N4O4F
_symmetry_space_group_name_H-M   'P 1'
_cell_length_a   9.69824883
_cell_length_b   10.66769920
_cell_length_c   11.97213421
_cell_angle_alpha   63.60167176
_cell_angle_beta   69.33555619
_cell_angle_gamma   81.06696173
_symmetry_Int_Tables_number   1
_chemical_formula_structural   ZnH15C27N4O4F
_chemical_formula_sum   'Zn2 H30 C54 N8 O8 F2'
_cell_volume   1038.07556463
_cell_formula_units_Z   2
loop_
 _symmetry_equiv_pos_site_id
 _symmetry_equiv_pos_as_xyz
  1  'x, y, z'
loop_
 _atom_site_type_symbol
 _atom_site_label
 _atom_site_symmetry_multiplicity
 _atom_site_fract_x
 _atom_site_fract_y
 _atom_site_fract_z
 _atom_site_occupancy
 _atom_site_hle17_bader_spin_density
 _atom_site_hle17_ddec_charge
 _atom_site_hle17_ddec_spin_density
 _atom_site_hle17_ddec_sum_bond_order
 _atom_site_hle17_magmom
 _atom_site_hse06_10hf_bader_spin_density
 _atom_site_hse06_10hf_ddec_charge
 _atom_site_hse06_10hf_ddec_spin_density
 _atom_site_hse06_10hf_ddec_sum_bond_order
 _atom_site_hse06_10hf_magmom
 _atom_site_hse06_bader_spin_density
 _atom_site_hse06_ddec_charge
 _atom_site_hse06_ddec_spin_density
 _atom_site_hse06_ddec_sum_bond_order
 _atom_site_hse06_magmom
 _atom_site_pbe_bader_spin_density
 _atom_site_pbe_cm5_charge
 _atom_site_pbe_ddec_charge
 _atom_site_pbe_ddec_spin_density
 _atom_site_pbe_ddec_sum_bond_order
 _atom_site_pbe_magmom
Zn  Zn0  1  0.50927297  0.10872001  0.85350543  1  0  1.038195  0  1.819375  0  0  0.852019  0  2.27134  0  0  0.901399  0  2.216923  0  0  0.691592  0.817626  0  2.308124  0
Zn  Zn1  1  0.49072604  0.89127986  0.14649363  1  0  1.038261  0  1.819314  0  0  0.852089  0  2.271281  0  0  0.90147  0  2.216858  0  0  0.691621  0.817698  0  2.308065  0
H  H2  1  0.84362257  0.92802455  0.91244080  1  0  0.102091  0  0.958609  0  0  0.111483  0  1.020742  0  0  0.11436  0  1.019947  0  0  0.101431  0.109304  0  1.021556  0
H  H3  1  0.15638197  0.07197116  0.08755915  1  0  0.102136  0  0.958587  0  0  0.111454  0  1.020794  0  0  0.114323  0  1.020015  0  0  0.101435  0.109276  0  1.021608  0
H  H4  1  0.91033522  0.18547248  0.08082552  1  0  0.098058  0  0.941745  0  0  0.108428  0  1.001952  0  0  0.112025  0  0.999788  0  0  0.102658  0.106027  0  1.003352  0
H  H5  1  0.08966713  0.81452114  0.91917422  1  0  0.09812  0  0.941678  0  0  0.108471  0  1.001897  0  0  0.112072  0  0.999735  0  0  0.10269  0.106068  0  1.0033  0
H  H6  1  0.47472207  0.32479825  0.97546914  1  0  0.095353  0  0.959758  0  0  0.100939  0  1.023978  0  0  0.104676  0  1.020386  0  0  0.117132  0.097908  0  1.027406  0
H  H7  1  0.52527584  0.67520162  0.02453191  1  0  0.095325  0  0.959809  0  0  0.100902  0  1.024053  0  0  0.104636  0  1.020471  0  0  0.11712  0.097868  0  1.02749  0
H  H8  1  0.29166155  0.51793723  0.99705330  1  0  0.124714  0  0.948741  0  0  0.132243  0  1.009943  0  0  0.135766  0  1.008563  0  0  0.112942  0.129611  0  1.011465  0
H  H9  1  0.70833966  0.48206369  0.00294721  1  0  0.124748  0  0.948717  0  0  0.132264  0  1.009925  0  0  0.135787  0  1.008544  0  0  0.112957  0.129634  0  1.011446  0
H  H10  1  0.09285777  0.57250002  0.89464752  1  0  0.107486  0  0.927719  0  0  0.119178  0  0.987384  0  0  0.122175  0  0.984889  0  0  0.113387  0.117198  0  0.988541  0
H  H11  1  0.90714125  0.42750089  0.10535447  1  0  0.107494  0  0.927783  0  0  0.119182  0  0.98743  0  0  0.122219  0  0.984884  0  0  0.113391  0.117202  0  0.988587  0
H  H12  1  0.48508097  0.99369804  0.65666778  1  0  0.078738  0  0.957223  0  0  0.086261  0  1.024967  0  0  0.088904  0  1.022593  0  0  0.115099  0.084519  0  1.026245  0
H  H13  1  0.51491805  0.00630182  0.34333378  1  0  0.078733  0  0.957206  0  0  0.086252  0  1.024954  0  0  0.088895  0  1.022579  0  0  0.115094  0.084511  0  1.026232  0
H  H14  1  0.29363498  0.01123479  0.55189576  1  0  0.106329  0  0.960957  0  0  0.111968  0  1.026754  0  0  0.114869  0  1.026575  0  0  0.103664  0.109672  0  1.027534  0
H  H15  1  0.70636402  0.98876613  0.44810289  1  0  0.106332  0  0.960954  0  0  0.111979  0  1.026744  0  0  0.114873  0  1.02657  0  0  0.103673  0.109682  0  1.027525  0
H  H16  1  0.08354064  0.17494558  0.57257642  1  0  0.095369  0  0.981192  0  0  0.108154  0  1.038877  0  0  0.109849  0  1.039151  0  0  0.106037  0.107201  0  1.038168  0
H  H17  1  0.91645947  0.82505639  0.42742316  1  0  0.09537  0  0.981225  0  0  0.108154  0  1.038908  0  0  0.109847  0  1.039184  0  0  0.106034  0.107201  0  1.038199  0
H  H18  1  0.70208662  0.66479308  0.80479804  1  0  0.099164  0  0.968411  0  0  0.106166  0  1.036781  0  0  0.108913  0  1.034928  0  0  0.107604  0.104489  0  1.037585  0
H  H19  1  0.29791239  0.33520888  0.19520187  1  0  0.09916  0  0.968414  0  0  0.106162  0  1.036786  0  0  0.108909  0  1.034933  0  0  0.107609  0.104486  0  1.03759  0
H  H20  1  0.46127522  0.77609260  0.78525762  1  0  0.132414  0  0.957514  0  0  0.139206  0  1.020852  0  0  0.142802  0  1.018894  0  0  0.110475  0.136781  0  1.02218  0
H  H21  1  0.53872269  0.22390831  0.21474386  1  0  0.132342  0  0.957649  0  0  0.139158  0  1.020938  0  0  0.142746  0  1.019003  0  0  0.110472  0.136738  0  1.022255  0
H  H22  1  0.46740062  0.58665858  0.53301206  1  0  0.121708  0  0.939903  0  0  0.132984  0  0.999677  0  0  0.136052  0  0.99843  0  0  0.107945  0.130992  0  1.000017  0
H  H23  1  0.53259950  0.41334234  0.46698877  1  0  0.121692  0  0.939909  0  0  0.132972  0  0.999679  0  0  0.136038  0  0.998435  0  0  0.107931  0.130967  0  1.000033  0
H  H24  1  0.70136915  0.46220596  0.56341751  1  0  0.103002  0  0.953086  0  0  0.112592  0  1.015586  0  0  0.115874  0  1.013289  0  0  0.105205  0.110307  0  1.017017  0
H  H25  1  0.29863206  0.53779497  0.43658217  1  0  0.10302  0  0.95305  0  0  0.112617  0  1.015542  0  0  0.115902  0  1.013242  0  0  0.105209  0.110331  0  1.016974  0
H  H26  1  0.90710957  0.24450501  0.42230828  1  0  0.102937  0  0.960414  0  0  0.106394  0  1.031939  0  0  0.110761  0  1.028657  0  0  0.099434  0.103472  0  1.034204  0
H  H27  1  0.09289163  0.75549906  0.57768850  1  0  0.102919  0  0.960467  0  0  0.106381  0  1.031986  0  0  0.110749  0  1.0287  0  0  0.099403  0.103458  0  1.034252  0
H  H28  1  0.88154521  0.82622365  0.72884929  1  0  0.101612  0  0.951941  0  0  0.109786  0  1.017409  0  0  0.11336  0  1.015079  0  0  0.10461  0.107347  0  1.01892  0
H  H29  1  0.11845490  0.17377728  0.27114820  1  0  0.101558  0  0.951958  0  0  0.109733  0  1.017433  0  0  0.113307  0  1.015106  0  0  0.104596  0.107295  0  1.018945  0
H  H30  1  0.86820946  0.32352304  0.64582908  1  0  0.321208  0  0.916437  0  0  0.302085  0  0.979385  0  0  0.310974  0  0.971894  0  0  0.307849  0.295903  0  0.984336  0
H  H31  1  0.13178954  0.67647996  0.35416958  1  0  0.321184  0  0.916458  0  0  0.302105  0  0.979347  0  0  0.310996  0  0.971851  0  0  0.307855  0.295926  0  0.984295  0
C  C32  1  0.71626640  0.13372848  0.99213698  1  0  0.663328  0  3.856547  0  0  0.606729  0  4.159538  0  0  0.640808  0  4.150385  0  0  0.213551  0.582682  0  4.165862  0
C  C33  1  0.28373597  0.86625991  0.00786398  1  0  0.663422  0  3.856377  0  0  0.606761  0  4.15952  0  0  0.64084  0  4.150371  0  0  0.213578  0.582722  0  4.165835  0
C  C34  1  0.86246718  0.06369218  0.99633011  1  0  -0.061827  0  3.743276  0  0  -0.04226  0  3.982924  0  0  -0.048178  0  4.004815  0  0  -0.019588  -0.037554  0  3.967725  0
C  C35  1  0.13753518  0.93630038  0.00367338  1  0  -0.061796  0  3.74338  0  0  -0.042311  0  3.983167  0  0  -0.048229  0  4.00506  0  0  -0.019555  -0.037604  0  3.96796  0
C  C36  1  0.91292342  0.95894064  0.95059958  1  0  -0.080134  0  3.728245  0  0  -0.104181  0  3.982836  0  0  -0.105404  0  4.003569  0  0  -0.090999  -0.102931  0  3.968624  0
C  C37  1  0.08707893  0.04105297  0.04940016  1  0  -0.080165  0  3.728482  0  0  -0.104107  0  3.983098  0  0  -0.10533  0  4.003832  0  0  -0.091042  -0.102859  0  3.968888  0
C  C38  1  0.95082594  0.10408417  0.04561913  1  0  -0.077482  0  3.742128  0  0  -0.101559  0  3.998122  0  0  -0.102757  0  4.018951  0  0  -0.087534  -0.100775  0  3.983558  0
C  C39  1  0.04917971  0.89591051  0.95438008  1  0  -0.077557  0  3.741991  0  0  -0.101578  0  3.998031  0  0  -0.102785  0  4.018871  0  0  -0.087583  -0.100786  0  3.983451  0
C  C40  1  0.38538579  0.35331516  0.93282243  1  0  0.150637  0  3.646296  0  0  0.118419  0  3.899079  0  0  0.126777  0  3.914746  0  0  0.057127  0.1114  0  3.891561  0
C  C41  1  0.61461324  0.64668366  0.06717955  1  0  0.15066  0  3.646361  0  0  0.118414  0  3.89919  0  0  0.126772  0  3.914851  0  0  0.057144  0.111395  0  3.891665  0
C  C42  1  0.28357997  0.45980768  0.94442212  1  0  -0.113224  0  3.709662  0  0  -0.126288  0  3.968259  0  0  -0.132619  0  3.988197  0  0  -0.077411  -0.123369  0  3.957392  0
C  C43  1  0.71642015  0.54019115  0.05557954  1  0  -0.11327  0  3.709667  0  0  -0.126312  0  3.968271  0  0  -0.132644  0  3.988218  0  0  -0.077424  -0.123395  0  3.957406  0
C  C44  1  0.17335689  0.49063418  0.88772955  1  0  -0.028511  0  3.674383  0  0  -0.06179  0  3.934116  0  0  -0.057837  0  3.948878  0  0  -0.061876  -0.062893  0  3.924303  0
C  C45  1  0.82664213  0.50936569  0.11227202  1  0  -0.02854  0  3.674508  0  0  -0.0618  0  3.934214  0  0  -0.057876  0  3.948965  0  0  -0.061912  -0.062903  0  3.924403  0
C  C46  1  0.16494496  0.41519132  0.81923904  1  0  -0.018718  0  3.778154  0  0  -0.006639  0  4.014379  0  0  -0.009404  0  4.037584  0  0  0.002797  -0.00682  0  4.000268  0
C  C47  1  0.83505186  0.58480853  0.18076317  1  0  -0.018727  0  3.778178  0  0  -0.006647  0  4.014404  0  0  -0.009415  0  4.037622  0  0  0.002847  -0.006829  0  4.000294  0
C  C48  1  0.27286179  0.31044808  0.81048020  1  0  0.123453  0  3.76738  0  0  0.114716  0  4.008545  0  0  0.118425  0  4.032057  0  0  0.112834  0.110535  0  3.994001  0
C  C49  1  0.72713503  0.68955073  0.18952325  1  0  0.123379  0  3.767435  0  0  0.114633  0  4.008611  0  0  0.118344  0  4.032121  0  0  0.112766  0.110453  0  3.994066  0
C  C50  1  0.27145037  0.22920944  0.74076179  1  0  0.127772  0  3.777771  0  0  0.11887  0  4.016895  0  0  0.122652  0  4.039968  0  0  0.116033  0.11749  0  4.001091  0
C  C51  1  0.72854754  0.77079042  0.25923926  1  0  0.1278  0  3.777704  0  0  0.1189  0  4.016808  0  0  0.12268  0  4.039881  0  0  0.116043  0.11752  0  4.001006  0
C  C52  1  0.39069570  0.06336454  0.66319314  1  0  0.143008  0  3.689651  0  0  0.10409  0  3.952252  0  0  0.11262  0  3.967521  0  0  0.050846  0.099835  0  3.940366  0
C  C53  1  0.60930551  0.93663638  0.33680654  1  0  0.143039  0  3.68944  0  0  0.104126  0  3.952051  0  0  0.112659  0  3.967319  0  0  0.050838  0.099871  0  3.940168  0
C  C54  1  0.28408823  0.07410359  0.60509004  1  0  -0.109331  0  3.724371  0  0  -0.123667  0  3.986409  0  0  -0.129949  0  4.007075  0  0  -0.082074  -0.120042  0  3.972188  0
C  C55  1  0.71591300  0.92589524  0.39491130  1  0  -0.109302  0  3.724344  0  0  -0.123642  0  3.986381  0  0  -0.129919  0  4.007048  0  0  -0.082069  -0.120017  0  3.97216  0
C  C56  1  0.16686184  0.16443055  0.61760592  1  0  -0.027709  0  3.677635  0  0  -0.055317  0  3.925834  0  0  -0.052492  0  3.944296  0  0  -0.064019  -0.056209  0  3.912502  0
C  C57  1  0.83313827  0.83557037  0.38239408  1  0  -0.027748  0  3.677739  0  0  -0.055366  0  3.925924  0  0  -0.052542  0  3.944386  0  0  -0.06403  -0.056257  0  3.91259  0
C  C58  1  0.15744535  0.24499132  0.68658079  1  0  -0.025946  0  3.802546  0  0  -0.011652  0  4.039122  0  0  -0.014264  0  4.061877  0  0  0.003993  -0.010955  0  4.023296  0
C  C59  1  0.84255146  0.75500958  0.31341934  1  0  -0.025969  0  3.80253  0  0  -0.011619  0  4.03907  0  0  -0.014231  0  4.061826  0  0  0.004011  -0.010923  0  4.023243  0
C  C60  1  0.04647121  0.34496412  0.70396106  1  0  0.110171  0  3.786739  0  0  0.088542  0  4.047678  0  0  0.091122  0  4.070959  0  0  0.094245  0.089397  0  4.029431  0
C  C61  1  0.95352780  0.65503679  0.29604093  1  0  0.110222  0  3.786635  0  0  0.088514  0  4.047677  0  0  0.091095  0  4.070957  0  0  0.094257  0.089373  0  4.02943  0
C  C62  1  0.05202593  0.43205523  0.76231335  1  0  0.102846  0  3.834945  0  0  0.094626  0  4.099011  0  0  0.096651  0  4.12215  0  0  0.088675  0.093227  0  4.084096  0
C  C63  1  0.94797198  0.56794672  0.23768771  1  0  0.102886  0  3.834877  0  0  0.09467  0  4.09898  0  0  0.096694  0  4.122119  0  0  0.088657  0.093271  0  4.084062  0
C  C64  1  0.85606909  0.48900372  0.70522628  1  0  0.350693  0  3.739404  0  0  0.321945  0  4.011458  0  0  0.336845  0  4.02549  0  0  0.224876  0.310934  0  4.00347  0
C  C65  1  0.14392992  0.51099824  0.29477447  1  0  0.350609  0  3.739411  0  0  0.321879  0  4.011464  0  0  0.336781  0  4.025495  0  0  0.224859  0.310872  0  4.003476  0
C  C66  1  0.71850258  0.55612922  0.68599833  1  0  -0.024066  0  3.798159  0  0  -0.009835  0  4.036295  0  0  -0.01379  0  4.059416  0  0  -0.011088  -0.008118  0  4.022142  0
C  C67  1  0.28149752  0.44387380  0.31400001  1  0  -0.023989  0  3.79813  0  0  -0.009796  0  4.036322  0  0  -0.01375  0  4.059442  0  0  -0.011073  -0.008078  0  4.022168  0
C  C68  1  0.65047390  0.64710620  0.74585012  1  0  -0.045177  0  3.701598  0  0  -0.0662  0  3.948839  0  0  -0.066044  0  3.969946  0  0  -0.074588  -0.065382  0  3.933861  0
C  C69  1  0.34952511  0.35289576  0.25414978  1  0  -0.045146  0  3.701524  0  0  -0.066167  0  3.948789  0  0  -0.066012  0  3.969899  0  0  -0.074583  -0.065351  0  3.933815  0
C  C70  1  0.51810486  0.71254556  0.73237936  1  0  -0.192467  0  3.765473  0  0  -0.215508  0  4.021787  0  0  -0.221463  0  4.041686  0  0  -0.098893  -0.211968  0  4.00925  0
C  C71  1  0.48189415  0.28745640  0.26761971  1  0  -0.192415  0  3.765503  0  0  -0.215469  0  4.021817  0  0  -0.221426  0  4.041721  0  0  -0.098902  -0.211931  0  4.009287  0
C  C72  1  0.45672793  0.68877145  0.65474462  1  0  0.304996  0  3.803107  0  0  0.29153  0  4.083889  0  0  0.302206  0  4.096249  0  0  0.093585  0.284256  0  4.076654  0
C  C73  1  0.54327218  0.31122947  0.34525538  1  0  0.304946  0  3.803079  0  0  0.291523  0  4.08381  0  0  0.302192  0  4.096182  0  0  0.093591  0.284252  0  4.076572  0
C  C74  1  0.52037168  0.60045503  0.59321925  1  0  -0.190441  0  3.770723  0  0  -0.219737  0  4.038823  0  0  -0.225218  0  4.059413  0  0  -0.105883  -0.215931  0  4.024568  0
C  C75  1  0.47962733  0.39954589  0.40678191  1  0  -0.190408  0  3.770691  0  0  -0.219717  0  4.038764  0  0  -0.225196  0  4.059357  0  0  -0.105875  -0.2159  0  4.024509  0
C  C76  1  0.65132908  0.53294133  0.61008383  1  0  -0.059867  0  3.719026  0  0  -0.084952  0  3.979112  0  0  -0.084222  0  3.998568  0  0  -0.082356  -0.084897  0  3.966447  0
C  C77  1  0.34867103  0.46706064  0.38991492  1  0  -0.059921  0  3.719027  0  0  -0.085006  0  3.979126  0  0  -0.08428  0  3.998583  0  0  -0.082362  -0.08495  0  3.966457  0
C  C78  1  0.75456264  0.08339199  0.67620526  1  0  0.631564  0  3.918539  0  0  0.58102  0  4.212521  0  0  0.61492  0  4.205323  0  0  0.198414  0.558116  0  4.21671  0
C  C79  1  0.24543746  0.91660998  0.32379182  1  0  0.631581  0  3.918529  0  0  0.581012  0  4.212537  0  0  0.614914  0  4.205338  0  0  0.198434  0.558109  0  4.216724  0
C  C80  1  0.88065830  0.03993558  0.58515144  1  0  -0.066407  0  3.765693  0  0  -0.043099  0  3.997488  0  0  -0.049305  0  4.018686  0  0  -0.017547  -0.039127  0  3.983294  0
C  C81  1  0.11934180  0.96006743  0.41484523  1  0  -0.066457  0  3.765754  0  0  -0.043124  0  3.997537  0  0  -0.04933  0  4.018738  0  0  -0.017519  -0.039154  0  3.983344  0
C  C82  1  0.94784749  0.13747637  0.45596272  1  0  -0.077303  0  3.739093  0  0  -0.101939  0  3.993922  0  0  -0.102096  0  4.011466  0  0  -0.086171  -0.101955  0  3.98183  0
C  C83  1  0.05215261  0.86252665  0.54403312  1  0  -0.077252  0  3.739199  0  0  -0.101898  0  3.994004  0  0  -0.102057  0  4.01155  0  0  -0.086128  -0.101913  0  3.981911  0
C  C84  1  0.93348881  0.90214076  0.62862087  1  0  -0.067384  0  3.715335  0  0  -0.089959  0  3.963993  0  0  -0.090946  0  3.984037  0  0  -0.080339  -0.088784  0  3.949661  0
C  C85  1  0.06651019  0.09786120  0.37137570  1  0  -0.067291  0  3.715245  0  0  -0.089878  0  3.963899  0  0  -0.09087  0  3.983948  0  0  -0.080323  -0.088702  0  3.949568  0
N  N86  1  0.38320473  0.13815915  0.72938867  1  0  -0.361147  0  3.327138  0  0  -0.287792  0  3.594855  0  0  -0.305991  0  3.612009  0  0  -0.325217  -0.275889  0  3.582063  0
N  N87  1  0.61679209  0.86183966  0.27061227  1  0  -0.361209  0  3.32693  0  0  -0.287871  0  3.59467  0  0  -0.306072  0  3.611825  0  0  -0.325222  -0.275969  0  3.581883  0
N  N88  1  0.37996166  0.28168680  0.86707348  1  0  -0.351157  0  3.290999  0  0  -0.277544  0  3.566329  0  0  -0.296319  0  3.581492  0  0  -0.318661  -0.264814  0  3.558013  0
N  N89  1  0.62003626  0.71831305  0.13292840  1  0  -0.351093  0  3.291053  0  0  -0.277454  0  3.566375  0  0  -0.296228  0  3.581532  0  0  -0.318627  -0.264724  0  3.558058  0
N  N90  1  0.93448841  0.52216294  0.76072011  1  0  -0.431852  0  2.9381  0  0  -0.406403  0  3.213479  0  0  -0.421175  0  3.227843  0  0  -0.332594  -0.398247  0  3.205617  0
N  N91  1  0.06551059  0.47783902  0.23928063  1  0  -0.43182  0  2.938162  0  0  -0.406358  0  3.213523  0  0  -0.421129  0  3.227888  0  0  -0.332573  -0.398202  0  3.205658  0
N  N92  1  0.92094624  0.38274781  0.66833866  1  0  -0.371043  0  3.334086  0  0  -0.313253  0  3.566849  0  0  -0.331211  0  3.580208  0  0  -0.373203  -0.299666  0  3.556327  0
N  N93  1  0.07905167  0.61725414  0.33166240  1  0  -0.371068  0  3.334061  0  0  -0.31329  0  3.566814  0  0  -0.331248  0  3.580171  0  0  -0.37324  -0.299716  0  3.556305  0
O  O94  1  0.62112962  0.06282594  0.98622477  1  0  -0.711057  0  2.175149  0  0  -0.618268  0  2.470987  0  0  -0.647663  0  2.4508  0  0  -0.344702  -0.596016  0  2.483585  0
O  O95  1  0.37887270  0.93717082  0.01377206  1  0  -0.71108  0  2.17481  0  0  -0.618285  0  2.470731  0  0  -0.64766  0  2.450505  0  0  -0.344735  -0.596052  0  2.483349  0
O  O96  1  0.69134558  0.25048584  0.99439805  1  0  -0.566228  0  1.911063  0  0  -0.519081  0  2.12935  0  0  -0.540471  0  2.122158  0  0  -0.297183  -0.504555  0  2.134416  0
O  O97  1  0.30865899  0.74950568  0.00560605  1  0  -0.566238  0  1.911213  0  0  -0.519055  0  2.129564  0  0  -0.540451  0  2.122378  0  0  -0.297165  -0.504533  0  2.134628  0
O  O98  1  0.66141689  0.98909460  0.76851281  1  0  -0.610241  0  1.996738  0  0  -0.543406  0  2.246602  0  0  -0.572196  0  2.237055  0  0  -0.314856  -0.523929  0  2.252817  0
O  O99  1  0.33858321  0.01090842  0.23148219  1  0  -0.610313  0  1.996769  0  0  -0.543453  0  2.246607  0  0  -0.572222  0  2.237008  0  0  -0.314911  -0.523978  0  2.252823  0
O  O100  1  0.74170490  0.21049115  0.66024484  1  0  -0.643859  0  1.951975  0  0  -0.592393  0  2.191711  0  0  -0.61633  0  2.179831  0  0  -0.323081  -0.575402  0  2.198619  0
O  O101  1  0.25829521  0.78950977  0.33975433  1  0  -0.643823  0  1.95198  0  0  -0.592371  0  2.191738  0  0  -0.616313  0  2.179854  0  0  -0.323063  -0.575376  0  2.198633  0
F  F102  1  0.32721068  0.75381840  0.63915994  1  0  -0.224315  0  1.217  0  0  -0.157687  0  1.370575  0  0  -0.168484  0  1.362969  0  0  -0.094191  -0.150033  0  1.375895  0
F  F103  1  0.67279164  0.24618358  0.36084068  1  0  -0.224293  0  1.216984  0  0  -0.157696  0  1.370559  0  0  -0.168484  0  1.362962  0  0  -0.094189  -0.15004  0  1.375881  0
