# generated using pymatgen
data_ZnPH7C6NO3
_symmetry_space_group_name_H-M   'P 1'
_cell_length_a   5.12547547
_cell_length_b   8.84744740
_cell_length_c   11.27850001
_cell_angle_alpha   84.07758705
_cell_angle_beta   79.23593033
_cell_angle_gamma   74.09363242
_symmetry_Int_Tables_number   1
_chemical_formula_structural   ZnPH7C6NO3
_chemical_formula_sum   'Zn2 P2 H14 C12 N2 O6'
_cell_volume   482.48042844
_cell_formula_units_Z   2
loop_
 _symmetry_equiv_pos_site_id
 _symmetry_equiv_pos_as_xyz
  1  'x, y, z'
loop_
 _atom_site_type_symbol
 _atom_site_label
 _atom_site_symmetry_multiplicity
 _atom_site_fract_x
 _atom_site_fract_y
 _atom_site_fract_z
 _atom_site_occupancy
 _atom_site_hle17_bader_spin_density
 _atom_site_hle17_ddec_charge
 _atom_site_hle17_ddec_spin_density
 _atom_site_hle17_ddec_sum_bond_order
 _atom_site_hle17_magmom
 _atom_site_hse06_10hf_bader_spin_density
 _atom_site_hse06_10hf_ddec_charge
 _atom_site_hse06_10hf_ddec_spin_density
 _atom_site_hse06_10hf_ddec_sum_bond_order
 _atom_site_hse06_10hf_magmom
 _atom_site_hse06_bader_spin_density
 _atom_site_hse06_ddec_charge
 _atom_site_hse06_ddec_spin_density
 _atom_site_hse06_ddec_sum_bond_order
 _atom_site_hse06_magmom
 _atom_site_pbe_bader_spin_density
 _atom_site_pbe_cm5_charge
 _atom_site_pbe_ddec_charge
 _atom_site_pbe_ddec_spin_density
 _atom_site_pbe_ddec_sum_bond_order
 _atom_site_pbe_magmom
Zn  Zn0  1  0.15073390  0.15950272  0.92000948  1  0  1.13009  0  1.862363  0  0  0.956761  0  2.346972  0  0  0.999957  0  2.286076  0  0  0.70447  0.926515  0  2.388941  0
Zn  Zn1  1  0.84926781  0.84049624  0.07998913  1  0  1.130123  0  1.862411  0  0  0.95675  0  2.347042  0  0  0.999955  0  2.286147  0  0  0.704463  0.926508  0  2.389017  0
P  P2  1  0.57095179  0.20801311  0.06372626  1  0  1.539148  0  4.896399  0  0  1.39927  0  5.382426  0  0  1.448169  0  5.345249  0  0  0.315655  1.364887  0  5.407486  0
P  P3  1  0.42905189  0.79198583  0.93627307  1  0  1.539172  0  4.89636  0  0  1.399293  0  5.382391  0  0  1.448194  0  5.345213  0  0  0.315669  1.36491  0  5.407447  0
H  H4  1  0.81367399  0.34400086  0.15576663  1  0  0.169446  0  0.967389  0  0  0.186997  0  1.022113  0  0  0.189596  0  1.022099  0  0  0.097946  0.185154  0  1.022229  0
H  H5  1  0.18632367  0.65599819  0.84423496  1  0  0.169453  0  0.967363  0  0  0.186995  0  1.022105  0  0  0.189594  0  1.02209  0  0  0.097955  0.185153  0  1.02222  0
H  H6  1  0.48608609  0.34621721  0.24584385  1  0  0.14005  0  0.958251  0  0  0.157889  0  1.015383  0  0  0.160158  0  1.015571  0  0  0.08851  0.156379  0  1.015267  0
H  H7  1  0.51391406  0.65378064  0.75415765  1  0  0.140052  0  0.958259  0  0  0.157906  0  1.015377  0  0  0.160175  0  1.015566  0  0  0.088527  0.156396  0  1.015261  0
H  H8  1  0.50970478  0.47694887  0.11324379  1  0  0.16347  0  0.95967  0  0  0.181141  0  1.016638  0  0  0.183698  0  1.016431  0  0  0.098221  0.179307  0  1.016807  0
H  H9  1  0.49029584  0.52304782  0.88675866  1  0  0.163485  0  0.959599  0  0  0.181153  0  1.016592  0  0  0.18371  0  1.016385  0  0  0.098227  0.17932  0  1.01676  0
H  H10  1  0.89857379  0.44818400  0.77505827  1  0  0.0913  0  0.951321  0  0  0.099836  0  1.015322  0  0  0.10185  0  1.014135  0  0  0.124467  0.098271  0  1.016259  0
H  H11  1  0.10142087  0.55181745  0.22494425  1  0  0.091263  0  0.951406  0  0  0.099781  0  1.015418  0  0  0.101789  0  1.014233  0  0  0.124447  0.098216  0  1.016354  0
H  H12  1  0.03706853  0.60860259  0.59375492  1  0  0.105655  0  0.950355  0  0  0.118743  0  1.004389  0  0  0.121901  0  1.003584  0  0  0.111894  0.116431  0  1.005182  0
H  H13  1  0.96292762  0.39140002  0.40624826  1  0  0.105674  0  0.950286  0  0  0.118753  0  1.004337  0  0  0.121917  0  1.003524  0  0  0.111904  0.116443  0  1.00513  0
H  H14  1  0.83368520  0.26755010  0.55117962  1  0  0.105795  0  0.95163  0  0  0.11902  0  1.004073  0  0  0.1221  0  1.00365  0  0  0.111372  0.116815  0  1.004621  0
H  H15  1  0.16630958  0.73245125  0.44881669  1  0  0.105803  0  0.951685  0  0  0.119008  0  1.004142  0  0  0.122087  0  1.003724  0  0  0.111361  0.116804  0  1.004687  0
H  H16  1  0.65773336  0.12375380  0.73601489  1  0  0.106655  0  0.909716  0  0  0.115955  0  0.965305  0  0  0.118964  0  0.962381  0  0  0.132025  0.113609  0  0.967659  0
H  H17  1  0.34225996  0.87625106  0.26398034  1  0  0.106648  0  0.909494  0  0  0.115994  0  0.965057  0  0  0.118995  0  0.962142  0  0  0.13205  0.113647  0  0.967411  0
C  C18  1  0.59479289  0.35937435  0.15339399  1  0  -0.640888  0  3.627613  0  0  -0.688106  0  3.848437  0  0  -0.700181  0  3.852057  0  0  -0.260433  -0.679516  0  3.845835  0
C  C19  1  0.40520978  0.64062227  0.84660564  1  0  -0.640928  0  3.62757  0  0  -0.688151  0  3.848388  0  0  -0.700229  0  3.852011  0  0  -0.26048  -0.679561  0  3.845785  0
C  C20  1  0.10327302  0.41271765  0.72153453  1  0  0.140616  0  3.696983  0  0  0.109123  0  3.949325  0  0  0.116172  0  3.967765  0  0  0.061345  0.104583  0  3.936833  0
C  C21  1  0.89672812  0.58728254  0.27846756  1  0  0.140701  0  3.697135  0  0  0.109199  0  3.949466  0  0  0.116257  0  3.967898  0  0  0.061385  0.104663  0  3.936974  0
C  C22  1  0.18393861  0.50127277  0.61928014  1  0  -0.15762  0  3.709966  0  0  -0.178881  0  3.964612  0  0  -0.186865  0  3.985888  0  0  -0.077192  -0.173474  0  3.950162  0
C  C23  1  0.81605660  0.49873215  0.38072025  1  0  -0.157648  0  3.710049  0  0  -0.178917  0  3.964725  0  0  -0.186908  0  3.985998  0  0  -0.077235  -0.17351  0  3.950275  0
C  C24  1  0.45144249  0.45332555  0.55377104  1  0  0.088367  0  3.76024  0  0  0.09862  0  3.995758  0  0  0.102852  0  4.017422  0  0  0.011674  0.095849  0  3.98115  0
C  C25  1  0.54855372  0.54667701  0.44622859  1  0  0.088305  0  3.760171  0  0  0.098548  0  3.995697  0  0  0.102784  0  4.01736  0  0  0.011654  0.095775  0  3.981091  0
C  C26  1  0.62325545  0.31320044  0.59624341  1  0  -0.162968  0  3.709639  0  0  -0.181538  0  3.957962  0  0  -0.190083  0  3.980115  0  0  -0.079222  -0.176384  0  3.943609  0
C  C27  1  0.37673684  0.68680211  0.40375300  1  0  -0.163011  0  3.709692  0  0  -0.181554  0  3.958048  0  0  -0.190098  0  3.980196  0  0  -0.079231  -0.1764  0  3.943693  0
C  C28  1  0.52792178  0.23087172  0.69935487  1  0  0.155948  0  3.67205  0  0  0.123326  0  3.924307  0  0  0.130933  0  3.941425  0  0  0.062355  0.118235  0  3.913205  0
C  C29  1  0.47208035  0.76912611  0.30064735  1  0  0.156048  0  3.671855  0  0  0.123347  0  3.924121  0  0  0.130958  0  3.941244  0  0  0.062359  0.11826  0  3.913017  0
N  N30  1  0.27156445  0.28009110  0.76112382  1  0  -0.30686  0  3.260811  0  0  -0.226894  0  3.534839  0  0  -0.244855  0  3.548188  0  0  -0.31503  -0.21516  0  3.526212  0
N  N31  1  0.72843876  0.71990901  0.23887457  1  0  -0.306956  0  3.26078  0  0  -0.2269  0  3.534746  0  0  -0.244863  0  3.548095  0  0  -0.315031  -0.215178  0  3.526133  0
O  O32  1  0.26609563  0.23785455  0.05101457  1  0  -0.873472  0  1.983717  0  0  -0.778446  0  2.268593  0  0  -0.806646  0  2.242998  0  0  -0.391688  -0.758078  0  2.285426  0
O  O33  1  0.73391254  0.76213846  0.94898315  1  0  -0.873491  0  1.983664  0  0  -0.778451  0  2.268551  0  0  -0.806646  0  2.242942  0  0  -0.391718  -0.758088  0  2.28539  0
O  O34  1  0.67996959  0.05127030  0.13407877  1  0  -0.899126  0  2.002436  0  0  -0.807716  0  2.294709  0  0  -0.83454  0  2.266269  0  0  -0.403445  -0.788473  0  2.313706  0
O  O35  1  0.32003807  0.94872861  0.86592113  1  0  -0.899098  0  2.002448  0  0  -0.8077  0  2.29471  0  0  -0.834524  0  2.266268  0  0  -0.403427  -0.788455  0  2.313706  0
O  O36  1  0.74947554  0.22210087  0.93773939  1  0  -0.895583  0  1.98144  0  0  -0.805061  0  2.278959  0  0  -0.833147  0  2.253547  0  0  -0.392902  -0.784909  0  2.295852  0
O  O37  1  0.25053212  0.77789804  0.06226051  1  0  -0.895619  0  1.98136  0  0  -0.805093  0  2.278861  0  0  -0.833183  0  2.253448  0  0  -0.3929  -0.784944  0  2.295754  0
