# generated using pymatgen
data_CdH12C12SN4O5
_symmetry_space_group_name_H-M   'P 1'
_cell_length_a   7.61691773
_cell_length_b   10.66941386
_cell_length_c   10.87162276
_cell_angle_alpha   104.69355130
_cell_angle_beta   101.71823268
_cell_angle_gamma   108.00612583
_symmetry_Int_Tables_number   1
_chemical_formula_structural   CdH12C12SN4O5
_chemical_formula_sum   'Cd2 H24 C24 S2 N8 O10'
_cell_volume   773.77483724
_cell_formula_units_Z   2
loop_
 _symmetry_equiv_pos_site_id
 _symmetry_equiv_pos_as_xyz
  1  'x, y, z'
loop_
 _atom_site_type_symbol
 _atom_site_label
 _atom_site_symmetry_multiplicity
 _atom_site_fract_x
 _atom_site_fract_y
 _atom_site_fract_z
 _atom_site_occupancy
 _atom_site_hle17_bader_spin_density
 _atom_site_hle17_ddec_charge
 _atom_site_hle17_ddec_spin_density
 _atom_site_hle17_ddec_sum_bond_order
 _atom_site_hle17_magmom
 _atom_site_hse06_10hf_bader_spin_density
 _atom_site_hse06_10hf_ddec_charge
 _atom_site_hse06_10hf_ddec_spin_density
 _atom_site_hse06_10hf_ddec_sum_bond_order
 _atom_site_hse06_10hf_magmom
 _atom_site_hse06_bader_spin_density
 _atom_site_hse06_ddec_charge
 _atom_site_hse06_ddec_spin_density
 _atom_site_hse06_ddec_sum_bond_order
 _atom_site_hse06_magmom
 _atom_site_pbe_bader_spin_density
 _atom_site_pbe_cm5_charge
 _atom_site_pbe_ddec_charge
 _atom_site_pbe_ddec_spin_density
 _atom_site_pbe_ddec_sum_bond_order
 _atom_site_pbe_magmom
Cd  Cd0  1  0.21185466  0.13203878  0.24380144  1  0  1.12868  0  1.67582  0  0  0.934834  0  2.119153  0  0  0.990991  0  2.067971  0  0  0.769103  0.893439  0  2.156181  0
Cd  Cd1  1  0.78814577  0.86796204  0.75619743  1  0  1.128701  0  1.675818  0  0  0.934856  0  2.119155  0  0  0.991012  0  2.067971  0  0  0.7691  0.893457  0  2.156182  0
H  H2  1  0.65230659  0.11608590  0.21051913  1  0  0.101455  0  0.948073  0  0  0.109778  0  1.011891  0  0  0.112786  0  1.008008  0  0  0.135232  0.107692  0  1.014315  0
H  H3  1  0.34769733  0.88391389  0.78948091  1  0  0.101424  0  0.948047  0  0  0.109736  0  1.011876  0  0  0.112741  0  1.007998  0  0  0.135212  0.10765  0  1.014299  0
H  H4  1  0.53790936  0.46700756  0.39943525  1  0  0.101626  0  0.961328  0  0  0.110202  0  1.025114  0  0  0.112736  0  1.024093  0  0  0.113232  0.108353  0  1.02591  0
H  H5  1  0.46208407  0.53299013  0.60056371  1  0  0.10161  0  0.961438  0  0  0.110215  0  1.025182  0  0  0.112733  0  1.02418  0  0  0.113233  0.108371  0  1.025972  0
H  H6  1  0.92026313  0.55696167  0.39593675  1  0  0.101143  0  0.977958  0  0  0.107339  0  1.045471  0  0  0.110163  0  1.044307  0  0  0.114653  0.105324  0  1.04636  0
H  H7  1  0.07973138  0.44303809  0.60406102  1  0  0.101143  0  0.977987  0  0  0.107329  0  1.045517  0  0  0.110152  0  1.044355  0  0  0.114662  0.105315  0  1.046407  0
H  H8  1  0.97237923  0.16098256  0.67881324  1  0  0.314989  0  0.939725  0  0  0.294245  0  1.002617  0  0  0.303444  0  0.994899  0  0  0.305959  0.287603  0  1.008208  0
H  H9  1  0.02761771  0.83901929  0.32118446  1  0  0.315085  0  0.939624  0  0  0.294243  0  1.002642  0  0  0.303442  0  0.994923  0  0  0.305936  0.287601  0  1.008232  0
H  H10  1  0.96154021  0.33514867  0.27124400  1  0  0.315296  0  0.925817  0  0  0.294909  0  0.988387  0  0  0.303724  0  0.981352  0  0  0.307945  0.288558  0  0.993545  0
H  H11  1  0.03846078  0.66485321  0.72875612  1  0  0.315331  0  0.925799  0  0  0.294922  0  0.988372  0  0  0.303737  0  0.981338  0  0  0.30796  0.288573  0  0.993528  0
H  H12  1  0.83169024  0.04736288  0.06128746  1  0  0.427032  0  0.875741  0  0  0.395962  0  0.940431  0  0  0.406599  0  0.924939  0  0  0.289319  0.388177  0  0.951827  0
H  H13  1  0.16831047  0.95263591  0.93871556  1  0  0.427045  0  0.875697  0  0  0.395983  0  0.94039  0  0  0.406621  0  0.92489  0  0  0.28934  0.388198  0  0.951787  0
H  H14  1  0.84774794  0.91076637  0.07855887  1  0  0.430921  0  0.872474  0  0  0.399835  0  0.936922  0  0  0.41078  0  0.920995  0  0  0.288524  0.391767  0  0.948759  0
H  H15  1  0.15225220  0.08923131  0.92143921  1  0  0.430838  0  0.872596  0  0  0.399805  0  0.936972  0  0  0.410731  0  0.921063  0  0  0.288516  0.391737  0  0.94881  0
H  H16  1  0.33664166  0.46495429  0.91925762  1  0  0.112932  0  0.95691  0  0  0.120961  0  1.022764  0  0  0.123689  0  1.021715  0  0  0.105913  0.119027  0  1.023519  0
H  H17  1  0.66336066  0.53504758  0.08074177  1  0  0.112895  0  0.956885  0  0  0.120926  0  1.022744  0  0  0.12365  0  1.0217  0  0  0.105903  0.118993  0  1.0235  0
H  H18  1  0.37816852  0.72831594  0.95081523  1  0  0.121078  0  0.957154  0  0  0.13035  0  1.018381  0  0  0.133151  0  1.016969  0  0  0.109445  0.128393  0  1.019467  0
H  H19  1  0.62182845  0.27168596  0.04918709  1  0  0.121072  0  0.957086  0  0  0.130347  0  1.018317  0  0  0.133149  0  1.016904  0  0  0.109421  0.128391  0  1.019402  0
H  H20  1  0.88002531  0.12285921  0.43019848  1  0  0.084663  0  0.942559  0  0  0.094522  0  1.006227  0  0  0.096583  0  1.003837  0  0  0.131911  0.093161  0  1.007701  0
H  H21  1  0.11997486  0.87714368  0.56979900  1  0  0.084676  0  0.942507  0  0  0.094537  0  1.006172  0  0  0.096598  0  1.003781  0  0  0.131921  0.093175  0  1.007645  0
H  H22  1  0.48731853  0.24609568  0.56510860  1  0  0.091701  0  0.985962  0  0  0.095212  0  1.056743  0  0  0.098056  0  1.055341  0  0  0.104159  0.093065  0  1.058009  0
H  H23  1  0.51267974  0.75390099  0.43489265  1  0  0.091691  0  0.985886  0  0  0.095191  0  1.056694  0  0  0.098037  0  1.055291  0  0  0.104155  0.093045  0  1.057959  0
H  H24  1  0.34243600  0.24214446  0.78108130  1  0  0.11285  0  0.970767  0  0  0.122097  0  1.033183  0  0  0.124443  0  1.032659  0  0  0.118447  0.120322  0  1.033652  0
H  H25  1  0.65755907  0.75785637  0.21891865  1  0  0.112818  0  0.970693  0  0  0.122055  0  1.03314  0  0  0.124402  0  1.032613  0  0  0.118439  0.12028  0  1.03361  0
C  C26  1  0.19913446  0.34515470  0.10528779  1  0  0.666403  0  3.954712  0  0  0.612134  0  4.254314  0  0  0.646394  0  4.246868  0  0  0.199444  0.588784  0  4.258268  0
C  C27  1  0.80087136  0.65484618  0.89471462  1  0  0.666512  0  3.954542  0  0  0.612232  0  4.254171  0  0  0.646493  0  4.246725  0  0  0.199511  0.588882  0  4.258125  0
C  C28  1  0.67168400  0.22254635  0.26430979  1  0  0.205718  0  3.679533  0  0  0.148303  0  3.948816  0  0  0.162044  0  3.961386  0  0  0.137661  0.139176  0  3.939983  0
C  C29  1  0.32831804  0.77745241  0.73569158  1  0  0.205773  0  3.679575  0  0  0.148326  0  3.948847  0  0  0.162066  0  3.961419  0  0  0.137669  0.139201  0  3.940012  0
C  C30  1  0.61918786  0.40697068  0.36201711  1  0  -0.009737  0  3.750308  0  0  -0.040811  0  4.009849  0  0  -0.039779  0  4.031798  0  0  -0.011285  -0.041664  0  3.995259  0
C  C31  1  0.38081040  0.59302599  0.63798322  1  0  -0.009762  0  3.75035  0  0  -0.040866  0  4.009904  0  0  -0.039823  0  4.031864  0  0  -0.011294  -0.041726  0  3.995312  0
C  C32  1  0.80806002  0.45305127  0.36019748  1  0  -0.011566  0  3.706722  0  0  -0.048463  0  3.969292  0  0  -0.04683  0  3.988651  0  0  -0.004139  -0.049967  0  3.956595  0
C  C33  1  0.19193530  0.54694747  0.63980201  1  0  -0.011518  0  3.706715  0  0  -0.048439  0  3.96927  0  0  -0.046803  0  3.988623  0  0  -0.004142  -0.049944  0  3.956575  0
C  C34  1  0.22908360  0.48392873  0.09060155  1  0  -0.151123  0  3.725333  0  0  -0.132672  0  3.99297  0  0  -0.13916  0  4.013095  0  0  -0.0239  -0.128263  0  3.979128  0
C  C35  1  0.77091654  0.51606896  0.90939745  1  0  -0.151106  0  3.725211  0  0  -0.132686  0  3.992905  0  0  -0.139179  0  4.013037  0  0  -0.023905  -0.128275  0  3.979059  0
C  C36  1  0.30005191  0.53063037  0.99572602  1  0  -0.083848  0  3.770185  0  0  -0.114781  0  4.03776  0  0  -0.114362  0  4.05545  0  0  -0.097765  -0.114684  0  4.0253  0
C  C37  1  0.69994365  0.46936625  0.00427115  1  0  -0.083786  0  3.770145  0  0  -0.114704  0  4.037714  0  0  -0.114282  0  4.055408  0  0  -0.097752  -0.114609  0  4.025258  0
C  C38  1  0.31942703  0.66959413  0.01112541  1  0  -0.0657  0  3.729773  0  0  -0.100376  0  3.998933  0  0  -0.098114  0  4.015316  0  0  -0.095383  -0.101559  0  3.987459  0
C  C39  1  0.68057556  0.33040567  0.98887536  1  0  -0.065767  0  3.729821  0  0  -0.100445  0  3.998995  0  0  -0.098181  0  4.015376  0  0  -0.095382  -0.101628  0  3.987522  0
C  C40  1  0.25951369  0.72751107  0.11611918  1  0  -0.154992  0  3.72986  0  0  -0.136456  0  3.999445  0  0  -0.143994  0  4.019164  0  0  -0.02768  -0.131385  0  3.986094  0
C  C41  1  0.74048567  0.27248767  0.88388088  1  0  -0.154927  0  3.729876  0  0  -0.136414  0  3.999477  0  0  -0.143954  0  4.019196  0  0  -0.027653  -0.131342  0  3.986123  0
C  C42  1  0.25162174  0.86765731  0.15727929  1  0  0.657422  0  3.964514  0  0  0.606328  0  4.254457  0  0  0.640819  0  4.247784  0  0  0.195785  0.582852  0  4.257718  0
C  C43  1  0.74838004  0.13234353  0.84272162  1  0  0.657448  0  3.964404  0  0  0.606366  0  4.254347  0  0  0.64086  0  4.247669  0  0  0.195793  0.58289  0  4.257606  0
C  C44  1  0.02728788  0.15909541  0.49474685  1  0  0.212331  0  3.69717  0  0  0.153016  0  3.969737  0  0  0.167023  0  3.983052  0  0  0.134168  0.143701  0  3.960573  0
C  C45  1  0.97271176  0.84090645  0.50525215  1  0  0.212401  0  3.697055  0  0  0.153076  0  3.969603  0  0  0.167083  0  3.982917  0  0  0.13417  0.143759  0  3.960437  0
C  C46  1  0.33993001  0.22145212  0.56901738  1  0  -0.022856  0  3.779858  0  0  -0.053354  0  4.044193  0  0  -0.05248  0  4.065957  0  0  -0.014986  -0.053883  0  4.029229  0
C  C47  1  0.66007097  0.77854976  0.43098274  1  0  -0.02277  0  3.779858  0  0  -0.053264  0  4.044217  0  0  -0.052391  0  4.065981  0  0  -0.014927  -0.053793  0  4.029251  0
C  C48  1  0.27100115  0.22023525  0.67666136  1  0  -0.018493  0  3.69111  0  0  -0.054609  0  3.950089  0  0  -0.053613  0  3.970674  0  0  -0.002682  -0.055123  0  3.935932  0
C  C49  1  0.72899662  0.77976561  0.32334082  1  0  -0.018469  0  3.691126  0  0  -0.054595  0  3.950099  0  0  -0.053597  0  3.970679  0  0  -0.002732  -0.055109  0  3.935943  0
S  S50  1  0.18513647  0.61152006  0.19785524  1  0  0.16653  0  2.635302  0  0  0.166469  0  2.957614  0  0  0.166695  0  2.966285  0  0  0.105865  0.166234  0  2.951974  0
S  S51  1  0.81486368  0.38847764  0.80214468  1  0  0.166515  0  2.635297  0  0  0.166467  0  2.957638  0  0  0.166696  0  2.966312  0  0  0.105866  0.166232  0  2.951998  0
N  N52  1  0.18641908  0.18362661  0.45614211  1  0  -0.405267  0  3.248101  0  0  -0.326795  0  3.528788  0  0  -0.348241  0  3.546382  0  0  -0.367181  -0.311695  0  3.516279  0
N  N53  1  0.81358082  0.81637317  0.54385735  1  0  -0.405315  0  3.248172  0  0  -0.326843  0  3.528869  0  0  -0.34829  0  3.546463  0  0  -0.367187  -0.311742  0  3.516358  0
N  N54  1  0.07357657  0.18122452  0.62734698  1  0  -0.291688  0  3.472307  0  0  -0.223142  0  3.708104  0  0  -0.239403  0  3.72275  0  0  -0.381718  -0.212231  0  3.698288  0
N  N55  1  0.92642201  0.81878047  0.37265170  1  0  -0.291848  0  3.472179  0  0  -0.223208  0  3.707994  0  0  -0.239468  0  3.722637  0  0  -0.381698  -0.212296  0  3.698182  0
N  N56  1  0.53578570  0.26289242  0.30200537  1  0  -0.407027  0  3.261065  0  0  -0.326779  0  3.539891  0  0  -0.349003  0  3.558241  0  0  -0.363978  -0.31157  0  3.527472  0
N  N57  1  0.46421256  0.73710425  0.69799496  1  0  -0.406967  0  3.260988  0  0  -0.326715  0  3.539819  0  0  -0.348939  0  3.558164  0  0  -0.363933  -0.311507  0  3.527399  0
N  N58  1  0.83874381  0.33528752  0.29909543  1  0  -0.294313  0  3.468104  0  0  -0.226045  0  3.704326  0  0  -0.242874  0  3.7201  0  0  -0.380476  -0.214717  0  3.693872  0
N  N59  1  0.16125718  0.66471436  0.70090469  1  0  -0.294455  0  3.468248  0  0  -0.226087  0  3.704378  0  0  -0.242915  0  3.720151  0  0  -0.38053  -0.21476  0  3.693918  0
O  O60  1  0.88289306  0.01129433  0.13062390  1  0  -0.841818  0  1.836775  0  0  -0.777776  0  2.027169  0  0  -0.80048  0  1.993393  0  0  -0.591648  -0.761813  0  2.051575  0
O  O61  1  0.11710655  0.98870234  0.86937662  1  0  -0.841724  0  1.836882  0  0  -0.777738  0  2.027184  0  0  -0.80041  0  1.993456  0  0  -0.591645  -0.761778  0  2.051586  0
O  O62  1  0.23057052  0.25734991  0.01972550  1  0  -0.62648  0  1.952974  0  0  -0.56812  0  2.177379  0  0  -0.593023  0  2.168253  0  0  -0.315984  -0.549807  0  2.183697  0
O  O63  1  0.76944120  0.74265199  0.98027523  1  0  -0.626509  0  1.953116  0  0  -0.568076  0  2.177444  0  0  -0.592981  0  2.168322  0  0  -0.315966  -0.549764  0  2.18376  0
O  O64  1  0.14959502  0.32490860  0.20771296  1  0  -0.674495  0  2.024795  0  0  -0.604349  0  2.27213  0  0  -0.632441  0  2.260363  0  0  -0.337622  -0.584354  0  2.279305  0
O  O65  1  0.85040298  0.67509013  0.79228599  1  0  -0.674586  0  2.024653  0  0  -0.604442  0  2.271998  0  0  -0.632534  0  2.260231  0  0  -0.33769  -0.584448  0  2.279174  0
O  O66  1  0.28876085  0.94513375  0.08646540  1  0  -0.645224  0  1.972035  0  0  -0.577707  0  2.198208  0  0  -0.605081  0  2.187493  0  0  -0.319039  -0.557907  0  2.205582  0
O  O67  1  0.71124845  0.05486609  0.91353726  1  0  -0.645322  0  1.971961  0  0  -0.577783  0  2.198114  0  0  -0.605159  0  2.187397  0  0  -0.319087  -0.557986  0  2.20549  0
O  O68  1  0.20886209  0.90843145  0.26475598  1  0  -0.648169  0  2.00956  0  0  -0.584285  0  2.241823  0  0  -0.611271  0  2.231176  0  0  -0.331296  -0.565024  0  2.248251  0
O  O69  1  0.79113647  0.09156835  0.73524514  1  0  -0.648121  0  2.00956  0  0  -0.584285  0  2.241835  0  0  -0.611273  0  2.231185  0  0  -0.331287  -0.565023  0  2.248256  0
