# generated using pymatgen
data_Al6H62C99O31
_symmetry_space_group_name_H-M   'P 1'
_cell_length_a   12.55890481
_cell_length_b   12.81221129
_cell_length_c   27.68390261
_cell_angle_alpha   90.70988915
_cell_angle_beta   90.01784689
_cell_angle_gamma   60.75149234
_symmetry_Int_Tables_number   1
_chemical_formula_structural   Al6H62C99O31
_chemical_formula_sum   'Al6 H62 C99 O31'
_cell_volume   3886.24534507
_cell_formula_units_Z   1
loop_
 _symmetry_equiv_pos_site_id
 _symmetry_equiv_pos_as_xyz
  1  'x, y, z'
loop_
 _atom_site_type_symbol
 _atom_site_label
 _atom_site_symmetry_multiplicity
 _atom_site_fract_x
 _atom_site_fract_y
 _atom_site_fract_z
 _atom_site_occupancy
 _atom_site_pbe_bader_charge
 _atom_site_pbe_bader_spin_density
 _atom_site_pbe_cm5_charge
 _atom_site_pbe_ddec_charge
 _atom_site_pbe_ddec_spin_density
 _atom_site_pbe_ddec_sum_bond_order
 _atom_site_pbe_magmom
Al  Al0  1  0.85240238  0.57289484  0.49680074  1  2.493121  0  0.399583  1.686384  0  2.558661  0
Al  Al1  1  0.59740761  0.57480154  0.49644060  1  2.482045  0  0.508825  1.661502  0  2.501418  0
Al  Al2  1  0.59276298  0.81093949  0.49864260  1  2.479225  0  0.506133  1.660937  0  2.506759  0
Al  Al3  1  0.83085235  0.07207260  0.98415538  1  2.492786  0  0.393544  1.687211  0  2.558794  0
Al  Al4  1  0.08823240  0.06877691  0.98183441  1  2.481893  0  0.506113  1.661463  0  2.507553  0
Al  Al5  1  0.09134674  0.83324343  0.98420140  1  2.483944  0  0.505815  1.66078  0  2.507857  0
H  H6  1  0.42954334  0.93159100  0.19464915  1  0.056991  0  0.096722  0.096494  0  0.977299  0
H  H7  1  0.95453800  0.64214466  0.20148431  1  0.042176  0  0.09491  0.093688  0  0.979001  0
H  H8  1  0.66565584  0.38318743  0.18519015  1  0.037575  0  0.097016  0.096977  0  0.974998  0
H  H9  1  0.55137784  0.76274154  0.27181260  1  0.02413  0  0.090938  0.08471  0  1.006732  0
H  H10  1  0.75772827  0.71376224  0.27316538  1  0.016687  0  0.090094  0.084005  0  1.004323  0
H  H11  1  0.67639101  0.52093957  0.26752443  1  -0.014068  0  0.090812  0.084793  0  1.002328  0
H  H12  1  0.52023947  0.77480307  0.18818761  1  0.030845  0  0.094117  0.092628  0  0.982456  0
H  H13  1  0.79613749  0.71264872  0.19026060  1  0.015047  0  0.0934  0.091176  0  0.983689  0
H  H14  1  0.71522566  0.49053312  0.18427598  1  0.018614  0  0.092956  0.090517  0  0.982444  0
H  H15  1  0.26293369  0.70773892  0.20052209  1  0.02742  0  0.093869  0.091618  0  0.994226  0
H  H16  1  0.74322463  0.02616752  0.20212648  1  0.033447  0  0.093245  0.090892  0  0.994009  0
H  H17  1  0.04559922  0.27209583  0.20547763  1  0.033201  0  0.093275  0.091135  0  0.983302  0
H  H18  1  0.24238266  0.03856099  0.85682542  1  0.116847  0  0.111144  0.117328  0  1.006183  0
H  H19  1  0.08246461  0.70987687  0.85096321  1  0.118658  0  0.106301  0.112138  0  1.012247  0
H  H20  1  0.74915015  0.18341519  0.85148011  1  0.085095  0  0.114543  0.124628  0  0.997622  0
H  H21  1  0.25731561  0.12170663  0.77801218  1  0.055013  0  0.101429  0.099445  0  1.015396  0
H  H22  1  0.16073124  0.62259235  0.76903772  1  0.062917  0  0.0959  0.094469  0  1.032751  0
H  H23  1  0.63873958  0.20256659  0.77439950  1  0.061803  0  0.099678  0.099254  0  1.018049  0
H  H24  1  0.29257335  0.09972064  0.69056665  1  0.072292  0  0.107228  0.113809  0  1.018059  0
H  H25  1  0.12633094  0.61009430  0.68248059  1  0.109316  0  0.105587  0.113787  0  1.013151  0
H  H26  1  0.60448112  0.25764444  0.68893828  1  0.105653  0  0.104392  0.115421  0  1.033986  0
H  H27  1  0.31683891  0.67420366  0.86498926  1  0.109325  0  0.112347  0.118877  0  0.992232  0
H  H28  1  0.70838861  0.98128430  0.87022832  1  0.126178  0  0.11794  0.129407  0  0.984819  0
H  H29  1  0.04602767  0.25981252  0.85562565  1  0.100936  0  0.107623  0.112219  0  1.002158  0
H  H30  1  0.38588096  0.54224963  0.79145488  1  0.082688  0  0.107666  0.108  0  0.986568  0
H  H31  1  0.56541303  0.04481359  0.80052839  1  0.059469  0  0.105239  0.106061  0  0.989867  0
H  H32  1  0.10433099  0.33015280  0.78172787  1  0.063154  0  0.103755  0.102029  0  0.994447  0
H  H33  1  0.42334437  0.51798523  0.70322662  1  0.062484  0  0.107638  0.111095  0  0.99316  0
H  H34  1  0.52947073  0.03268462  0.71306590  1  0.084857  0  0.101624  0.103614  0  1.010218  0
H  H35  1  0.07355767  0.38164651  0.69487918  1  0.074145  0  0.108755  0.112675  0  0.985215  0
H  H36  1  0.45229080  0.91801510  0.27871278  1  0.033112  0  0.096147  0.094756  0  0.982927  0
H  H37  1  0.91600912  0.64188476  0.28434315  1  0.032363  0  0.096688  0.095548  0  0.983949  0
H  H38  1  0.63787163  0.40558999  0.26923096  1  0.026561  0  0.095862  0.094975  0  0.976725  0
H  H39  1  0.43373784  0.60304336  0.62474421  1  0.095415  0  0.110901  0.113136  0  1.027631  0
H  H40  1  0.60660886  0.94267382  0.63244990  1  0.125266  0  0.106701  0.107558  0  1.033179  0
H  H41  1  0.95482968  0.41382272  0.62041626  1  0.100472  0  0.118041  0.126993  0  1.002203  0
H  H42  1  0.16649999  0.89895954  0.29377806  1  0.042253  0  0.095626  0.096412  0  0.985314  0
H  H43  1  0.93702287  0.92083968  0.30142621  1  0.029001  0  0.094861  0.093384  0  0.985557  0
H  H44  1  0.95556756  0.15805322  0.29101972  1  0.042835  0  0.094576  0.094925  0  0.980714  0
H  H45  1  0.22678282  0.99790078  0.29566388  1  0.044272  0  0.097143  0.096714  0  0.977446  0
H  H46  1  0.02135788  0.76292725  0.30017197  1  0.03793  0  0.096404  0.095952  0  0.977427  0
H  H47  1  0.80134511  0.19233291  0.28791839  1  0.028579  0  0.094295  0.091568  0  0.986348  0
H  H48  1  0.20450032  0.02343380  0.21189645  1  0.031109  0  0.094284  0.092293  0  0.983743  0
H  H49  1  0.05743901  0.76744692  0.21734585  1  0.035158  0  0.092521  0.088835  0  0.995364  0
H  H50  1  0.81436028  0.16863886  0.20355639  1  0.044415  0  0.093503  0.090407  0  0.993722  0
H  H51  1  0.13328545  0.93384962  0.21107537  1  0.030218  0  0.091706  0.08461  0  1.027504  0
H  H52  1  0.96883620  0.92515434  0.21842670  1  0.009141  0  0.091475  0.087259  0  1.012714  0
H  H53  1  0.97201044  0.11975855  0.20756989  1  0.066215  0  0.091482  0.085211  0  1.02181  0
H  H54  1  0.46276083  0.62080682  0.27132856  1  0.032465  0  0.093045  0.090684  0  1.008751  0
H  H55  1  0.63470819  0.94190114  0.27483677  1  0.040394  0  0.092608  0.091033  0  0.99779  0
H  H56  1  0.89621575  0.47071277  0.27376933  1  0.019213  0  0.092679  0.091105  0  1.005234  0
H  H57  1  0.30621709  0.67638895  0.28315145  1  0.018022  0  0.096008  0.09615  0  0.976781  0
H  H58  1  0.70929881  0.02617040  0.28550244  1  0.040185  0  0.094088  0.092823  0  0.982241  0
H  H59  1  0.01062990  0.32468776  0.28785426  1  0.045565  0  0.096689  0.097543  0  0.973626  0
H  H60  1  0.42062711  0.64310760  0.18854104  1  0.034814  0  0.096357  0.097836  0  0.976697  0
H  H61  1  0.67078214  0.94001529  0.19163250  1  0.040321  0  0.095471  0.096434  0  0.976937  0
H  H62  1  0.94347025  0.42266840  0.19172760  1  0.046419  0  0.094433  0.094051  0  0.984013  0
H  H63  1  0.45151950  0.98162124  0.59296699  1  0.091487  0  0.108583  0.04889  0  1.008626  0
H  H64  1  0.00555191  0.56390474  0.58887941  1  0.121203  0  0.114504  0.063935  0  0.994346  0
H  H65  1  0.55563851  0.44379133  0.59225063  1  0.085568  0  0.104993  0.04299  0  1.020472  0
H  H66  1  0.05918067  0.50008757  0.47494878  1  0.583228  0  0.298815  0.38991  0  0.911876  0
H  H67  1  0.63110063  0.19087052  0.01277569  1  0.569094  0  0.290509  0.380881  0  0.926577  0
C  C68  1  0.77216909  0.77857344  0.43124624  1  1.659682  0  0.280421  0.72834  0  4.141998  0
C  C69  1  0.76613363  0.44321600  0.42722982  1  1.653818  0  0.279638  0.721004  0  4.150678  0
C  C70  1  0.45505427  0.76591708  0.43035160  1  1.63273  0  0.285683  0.732663  0  4.132505  0
C  C71  1  0.34513530  0.71324323  0.20979690  1  -0.010881  0  -0.153399  -0.186949  0  3.839293  0
C  C72  1  0.74259539  0.94421047  0.21284874  1  -0.037883  0  -0.153145  -0.185173  0  3.839994  0
C  C73  1  0.95239440  0.34560714  0.21198865  1  -0.05395  0  -0.153721  -0.187053  0  3.851335  0
C  C74  1  0.37145663  0.69621907  0.26457749  1  -0.006136  0  -0.154583  -0.188667  0  3.842983  0
C  C75  1  0.71932388  0.94464970  0.26771614  1  -0.031555  0  -0.154428  -0.188522  0  3.850281  0
C  C76  1  0.92766976  0.37560159  0.26646735  1  -0.017215  0  -0.154448  -0.188832  0  3.84412  0
C  C77  1  0.30212708  0.85267181  0.14250325  1  -0.258895  0  -0.008396  -0.010888  0  3.991119  0
C  C78  1  0.88964241  0.83753662  0.14739682  1  -0.496595  0  -0.019307  -0.033082  0  4.026047  0
C  C79  1  0.87980162  0.28377581  0.13991562  1  -0.470215  0  -0.01454  -0.022705  0  4.019335  0
C  C80  1  0.38555473  0.79712984  0.33913587  1  -0.584141  0  -0.005045  -0.005745  0  3.988149  0
C  C81  1  0.80578800  0.82954000  0.34245704  1  -0.551456  0  -0.015021  -0.023413  0  4.018052  0
C  C82  1  0.80838844  0.37090088  0.33596969  1  -0.137084  0  -0.015586  -0.027324  0  4.022448  0
C  C83  1  0.40675454  0.78604367  0.38221193  1  0.335302  0  -0.046843  -0.222792  0  3.956262  0
C  C84  1  0.79108331  0.81599396  0.38481008  1  0.29259  0  -0.049098  -0.220101  0  3.971766  0
C  C85  1  0.79151845  0.39470953  0.37885596  1  -0.163213  0  -0.048484  -0.216464  0  3.975512  0
C  C86  1  0.91725495  0.18260960  0.90960401  1  1.537107  0  0.270076  0.637775  0  4.089771  0
C  C87  1  0.23476114  0.88053800  0.91676232  1  1.534686  0  0.27828  0.650906  0  4.070633  0
C  C88  1  0.92009804  0.86203697  0.91639942  1  1.556632  0  0.274847  0.638492  0  4.091024  0
C  C89  1  0.91535056  0.21092458  0.04879187  1  1.640921  0  0.278238  0.722446  0  4.15311  0
C  C90  1  0.22810517  0.88794908  0.05169615  1  1.653582  0  0.282272  0.730525  0  4.14141  0
C  C91  1  0.92029242  0.87257733  0.05567804  1  1.663398  0  0.277106  0.722141  0  4.151097  0
C  C92  1  0.37027688  0.89356100  0.63712299  1  -0.004043  0  0.002263  -0.020762  0  3.876991  0
C  C93  1  0.90809318  0.72989743  0.63577854  1  -0.066486  0  0.002508  -0.019121  0  3.872957  0
C  C94  1  0.72271426  0.34996300  0.63582872  1  -0.039971  0  -0.005185  -0.035559  0  3.894638  0
C  C95  1  0.34042150  0.91152730  0.68706576  1  0.046967  0  0.007857  0.053981  0  3.961508  0
C  C96  1  0.93232284  0.74072780  0.68501483  1  1.5e-05  0  0.00338  0.049788  0  3.973574  0
C  C97  1  0.74733959  0.30689852  0.68396294  1  0.040874  0  0.007487  0.05856  0  3.957193  0
C  C98  1  0.29497247  0.93959416  0.78907627  1  0.017286  0  -0.003246  0.079113  0  4.040794  0
C  C99  1  0.97380804  0.75608269  0.78589690  1  -0.010419  0  -0.007207  0.077681  0  4.045157  0
C  C100  1  0.78789566  0.24075701  0.78352471  1  0.040327  0  -0.006089  0.074538  0  4.051815  0
C  C101  1  0.75907330  0.78529368  0.56764203  1  1.549209  0  0.274945  0.642843  0  4.079904  0
C  C102  1  0.77530960  0.44535305  0.56524454  1  1.533314  0  0.275485  0.638888  0  4.076871  0
C  C103  1  0.45223700  0.75251289  0.56480652  1  1.533621  0  0.282845  0.65532  0  4.055686  0
C  C104  1  0.28422870  0.03602112  0.76019815  1  -0.061676  0  -0.084386  -0.119128  0  4.00381  0
C  C105  1  0.06997264  0.67690416  0.75403972  1  -0.047505  0  -0.090257  -0.125279  0  4.012133  0
C  C106  1  0.69459328  0.23408168  0.75628155  1  -0.066425  0  -0.08651  -0.117525  0  4.005165  0
C  C107  1  0.30477637  0.02349683  0.71156650  1  -0.008214  0  -0.085703  -0.127771  0  3.997364  0
C  C108  1  0.05079452  0.66958475  0.70592765  1  -0.057842  0  -0.08919  -0.129122  0  3.999483  0
C  C109  1  0.67497529  0.26531135  0.70885726  1  -0.03506  0  -0.09164  -0.13719  0  4.002873  0
C  C110  1  0.27081111  0.95274925  0.83883632  1  -0.022207  0  -0.071938  -0.130403  0  3.909759  0
C  C111  1  0.99240667  0.76432385  0.83538831  1  -0.072798  0  -0.077288  -0.138654  0  3.926537  0
C  C112  1  0.80618050  0.21232131  0.83256283  1  -0.000408  0  -0.070515  -0.128884  0  3.906868  0
C  C113  1  0.27786688  0.85771319  0.86574166  1  -0.001371  0  -0.014941  -0.045248  0  4.011927  0
C  C114  1  0.89666775  0.84489630  0.86512612  1  0.028565  0  -0.016588  -0.043803  0  4.026068  0
C  C115  1  0.89853022  0.21965368  0.85815206  1  -0.012483  0  -0.016292  -0.042092  0  4.01695  0
C  C116  1  0.40979517  0.68768139  0.64277303  1  -0.006152  0  -0.067167  -0.11639  0  3.916303  0
C  C117  1  0.69618014  0.88588986  0.64786263  1  0.011889  0  -0.075426  -0.127439  0  3.939647  0
C  C118  1  0.89660820  0.38608576  0.63907016  1  -0.005502  0  -0.068231  -0.123175  0  3.920559  0
C  C119  1  0.38525247  0.70089751  0.69241439  1  0.032758  0  0.001292  0.083051  0  4.030127  0
C  C120  1  0.71592300  0.89635691  0.69691700  1  0.012489  0  -0.003574  0.079675  0  4.042371  0
C  C121  1  0.92019614  0.34905447  0.68699111  1  -0.013577  0  0.001486  0.087406  0  4.036833  0
C  C122  1  0.35158083  0.81350964  0.71519714  1  0.017467  0  0.013068  0.011771  0  3.90069  0
C  C123  1  0.83485696  0.82206955  0.71606144  1  -0.037991  0  0.009926  0.009303  0  3.907899  0
C  C124  1  0.84381012  0.31094181  0.71019758  1  -0.010238  0  0.009839  0.006131  0  3.907036  0
C  C125  1  0.39635811  0.60372596  0.72114092  1  -0.077264  0  -0.080016  -0.116531  0  3.978406  0
C  C126  1  0.61966137  0.97743428  0.72844584  1  -0.120599  0  -0.086006  -0.121538  0  3.997569  0
C  C127  1  0.01612655  0.35283973  0.71360853  1  0.005317  0  -0.080966  -0.118315  0  3.984767  0
C  C128  1  0.37545197  0.61722282  0.76978786  1  -0.033364  0  -0.082143  -0.125588  0  4.008343  0
C  C129  1  0.63945003  0.98412067  0.77653213  1  -0.014663  0  -0.086418  -0.130252  0  4.018248  0
C  C130  1  0.03324457  0.32392743  0.76130479  1  -0.056138  0  -0.084524  -0.126547  0  4.019183  0
C  C131  1  0.33960906  0.72948925  0.79381929  1  0.029619  0  -0.002159  0.076432  0  4.031215  0
C  C132  1  0.75768789  0.91114696  0.79700508  1  0.022333  0  -0.004507  0.0746  0  4.044524  0
C  C133  1  0.95815538  0.28575542  0.78600024  1  -0.026848  0  -0.005583  0.073982  0  4.037096  0
C  C134  1  0.45995621  0.83547895  0.26293132  1  -0.031784  0  -0.151772  -0.186685  0  3.839635  0
C  C135  1  0.84122253  0.71910058  0.26658209  1  -0.020804  0  -0.152616  -0.1869  0  3.843121  0
C  C136  1  0.70806137  0.42723621  0.25710115  1  0.014727  0  -0.154019  -0.18899  0  3.853351  0
C  C137  1  0.32889125  0.82744250  0.76588096  1  -0.015851  0  0.010965  0.010595  0  3.894682  0
C  C138  1  0.85542250  0.82976187  0.76617847  1  -0.012604  0  0.009004  0.007956  0  3.900484  0
C  C139  1  0.86371906  0.27857965  0.75968761  1  -0.044956  0  0.007769  0.008512  0  3.901897  0
C  C140  1  0.31266596  0.74674945  0.84342481  1  -0.112308  0  -0.072296  -0.134964  0  3.91565  0
C  C141  1  0.78041243  0.91808346  0.84612905  1  -0.066078  0  -0.072605  -0.137428  0  3.918234  0
C  C142  1  0.97430170  0.25535561  0.83500706  1  -0.04443  0  -0.077618  -0.141928  0  3.933513  0
C  C143  1  0.40709167  0.78024752  0.61557017  1  -0.061473  0  -0.008844  -0.081119  0  3.972292  0
C  C144  1  0.78905801  0.80211691  0.61797949  1  0.007293  0  -0.011498  -0.080702  0  3.993558  0
C  C145  1  0.79728645  0.39133747  0.61422516  1  -0.01113  0  -0.009012  -0.076996  0  3.973432  0
C  C146  1  0.23517816  0.91752130  0.27745195  1  -0.021495  0  -0.151699  -0.187215  0  3.839239  0
C  C147  1  0.94558359  0.84059283  0.28300100  1  -0.016389  0  -0.152547  -0.1892  0  3.847141  0
C  C148  1  0.86862901  0.21442348  0.27270969  1  -0.042072  0  -0.151885  -0.184707  0  3.84055  0
C  C149  1  0.21588831  0.93609976  0.22233881  1  -0.030065  0  -0.152745  -0.187441  0  3.837347  0
C  C150  1  0.96845631  0.84255715  0.22820993  1  -0.020302  0  -0.152756  -0.184295  0  3.83703  0
C  C151  1  0.88127301  0.19321074  0.21738389  1  -0.06731  0  -0.153347  -0.186077  0  3.837011  0
C  C152  1  0.27767959  0.86635053  0.09971358  1  -0.001422  0  -0.047879  -0.223217  0  3.958354  0
C  C153  1  0.90475847  0.84408206  0.10442124  1  0.219397  0  -0.050207  -0.217714  0  3.974412  0
C  C154  1  0.89460131  0.26060897  0.09693038  1  0.211894  0  -0.049995  -0.220812  0  3.97352  0
C  C155  1  0.36346141  0.81071641  0.28748941  1  0.128776  0  0.0023  0.166756  0  3.89477  0
C  C156  1  0.82661440  0.83488764  0.29132589  1  0.122865  0  0.000979  0.170488  0  3.901062  0
C  C157  1  0.82796598  0.34718387  0.28450567  1  0.156275  0  0.001256  0.170914  0  3.900763  0
C  C158  1  0.44109861  0.84590548  0.20753092  1  -0.034595  0  -0.152863  -0.189303  0  3.847621  0
C  C159  1  0.86621559  0.71893341  0.21190895  1  -0.023439  0  -0.153899  -0.188098  0  3.854493  0
C  C160  1  0.72934617  0.40839637  0.20193669  1  -0.028461  0  -0.152933  -0.187275  0  3.851501  0
C  C161  1  0.32630215  0.83675035  0.19400523  1  0.112132  0  0.002906  0.169338  0  3.891101  0
C  C162  1  0.86728074  0.83536579  0.19865839  1  0.132974  0  0.001514  0.170958  0  3.899252  0
C  C163  1  0.86142749  0.30799093  0.19136295  1  0.160911  0  0.001079  0.168735  0  3.902668  0
C  C164  1  0.36466570  0.99627101  0.60942328  1  0.964101  0  0.103041  0.281157  0  3.951321  0
C  C165  1  0.01166548  0.64125248  0.60414258  1  0.949744  0  0.105956  0.287622  0  3.927098  0
C  C166  1  0.61369624  0.35823434  0.61070488  1  0.942743  0  0.09575  0.276226  0  3.962381  0
O  O167  1  0.84530043  0.46155151  0.44772018  1  -1.212842  0  -0.207152  -0.559177  0  2.281465  0
O  O168  1  0.47084415  0.67223626  0.45215735  1  -1.243757  0  -0.224599  -0.587562  0  2.24169  0
O  O169  1  0.67991633  0.85416093  0.45661512  1  -1.259653  0  -0.240003  -0.605537  0  2.2302  0
O  O170  1  0.84410330  0.97583364  0.04167485  1  -1.226986  0  -0.209566  -0.55911  0  2.295511  0
O  O171  1  0.01607322  0.18978208  0.02790453  1  -1.256402  0  -0.242186  -0.602881  0  2.220168  0
O  O172  1  0.20618710  0.80805558  0.03343979  1  -1.249152  0  -0.229907  -0.59284  0  2.244939  0
O  O173  1  0.84607796  0.67156960  0.44230257  1  -1.227033  0  -0.212415  -0.571022  0  2.28951  0
O  O174  1  0.66035059  0.46904351  0.44466404  1  -1.253545  0  -0.242685  -0.603621  0  2.22144  0
O  O175  1  0.48483662  0.84218491  0.44670747  1  -1.242596  0  -0.226907  -0.586435  0  2.235253  0
O  O176  1  0.84350338  0.48674413  0.55214248  1  -1.239412  0  -0.206942  -0.542404  0  2.368316  0
O  O177  1  0.48695802  0.64647047  0.54833858  1  -1.268196  0  -0.230131  -0.591324  0  2.294996  0
O  O178  1  0.64909293  0.85552465  0.55270043  1  -1.279218  0  -0.24546  -0.611262  0  2.286142  0
O  O179  1  0.83979177  0.70025505  0.54273863  1  -1.240109  0  -0.205534  -0.556638  0  2.376119  0
O  O180  1  0.68676569  0.45092755  0.53955487  1  -1.263977  0  -0.240428  -0.60955  0  2.313822  0
O  O181  1  0.46191354  0.83220892  0.54080454  1  -1.256663  0  -0.224168  -0.591325  0  2.331524  0
O  O182  1  0.67887371  0.65403832  0.49682882  1  -1.607485  0  -0.392113  -1.273495  0  2.31405  0
O  O183  1  0.83884631  0.95187903  0.93903176  1  -1.253216  0  -0.2114  -0.553371  0  2.351215  0
O  O184  1  0.01228391  0.17453704  0.93121909  1  -1.274583  0  -0.251256  -0.618624  0  2.277599  0
O  O185  1  0.21606057  0.80252420  0.93776186  1  -1.254867  0  -0.232733  -0.59398  0  2.296877  0
O  O186  1  0.84085792  0.15782572  0.92834846  1  -1.242621  0  -0.212803  -0.560559  0  2.368301  0
O  O187  1  0.21126439  0.98124498  0.93596890  1  -1.272104  0  -0.235128  -0.600517  0  2.304424  0
O  O188  1  0.02500070  0.78676319  0.93403308  1  -1.278117  0  -0.249718  -0.613812  0  2.280503  0
O  O189  1  0.00588871  0.99051117  0.98395949  1  -1.612794  0  -0.391861  -1.268126  0  2.2932  0
O  O190  1  0.83638939  0.18710709  0.03170237  1  -1.220056  0  -0.210828  -0.567293  0  2.292202  0
O  O191  1  0.20423706  0.98655257  0.03203559  1  -1.238896  0  -0.226434  -0.586213  0  2.245051  0
O  O192  1  0.01232676  0.79277679  0.03121684  1  -1.257594  0  -0.245935  -0.612466  0  2.224761  0
O  O193  1  0.27157168  0.09321885  0.60710179  1  -1.069153  0  -0.260185  -0.345155  0  2.094735  0
O  O194  1  0.10239196  0.65172232  0.59746363  1  -1.074526  0  -0.272214  -0.362632  0  2.087685  0
O  O195  1  0.58456461  0.27974181  0.61121889  1  -1.076262  0  -0.270399  -0.359483  0  2.107327  0
O  O196  1  0.01148939  0.49468635  0.50115384  1  -1.367155  0  -0.566749  -0.990934  0  1.82515  0
O  O197  1  0.67071395  0.14575717  0.98378282  1  -1.360132  0  -0.582005  -1.000141  0  1.793505  0
