# generated using pymatgen
data_SmH8C11N3O7
_symmetry_space_group_name_H-M   'P 1'
_cell_length_a   6.84946953
_cell_length_b   10.06349962
_cell_length_c   18.46093255
_cell_angle_alpha   89.99995397
_cell_angle_beta   93.59528957
_cell_angle_gamma   90.00006055
_symmetry_Int_Tables_number   1
_chemical_formula_structural   SmH8C11N3O7
_chemical_formula_sum   'Sm4 H32 C44 N12 O28'
_cell_volume   1270.00089034
_cell_formula_units_Z   4
loop_
 _symmetry_equiv_pos_site_id
 _symmetry_equiv_pos_as_xyz
  1  'x, y, z'
loop_
 _atom_site_type_symbol
 _atom_site_label
 _atom_site_symmetry_multiplicity
 _atom_site_fract_x
 _atom_site_fract_y
 _atom_site_fract_z
 _atom_site_occupancy
 _atom_site_hle17_bader_spin_density
 _atom_site_hle17_ddec_charge
 _atom_site_hle17_ddec_spin_density
 _atom_site_hle17_ddec_sum_bond_order
 _atom_site_hle17_magmom
 _atom_site_hse06_10hf_bader_spin_density
 _atom_site_hse06_10hf_ddec_charge
 _atom_site_hse06_10hf_ddec_spin_density
 _atom_site_hse06_10hf_ddec_sum_bond_order
 _atom_site_hse06_10hf_magmom
 _atom_site_hse06_bader_spin_density
 _atom_site_hse06_ddec_charge
 _atom_site_hse06_ddec_spin_density
 _atom_site_hse06_ddec_sum_bond_order
 _atom_site_hse06_magmom
 _atom_site_pbe_bader_spin_density
 _atom_site_pbe_cm5_charge
 _atom_site_pbe_ddec_charge
 _atom_site_pbe_ddec_spin_density
 _atom_site_pbe_ddec_sum_bond_order
 _atom_site_pbe_magmom
Sm  Sm0  1  0.10996769  0.99714095  0.37553327  1  0  2.322608  0  1.625595  0  0  2.224407  0  1.985201  0  0  2.268087  0  1.940775  0  0  1.51058  2.133268  0  2.129976  0
Sm  Sm1  1  0.89002968  0.49714240  0.12446526  1  0  2.322572  0  1.625719  0  0  2.224357  0  1.985337  0  0  2.268042  0  1.940904  0  0  1.510565  2.133208  0  2.130139  0
Sm  Sm2  1  0.89003451  0.00285771  0.62446878  1  0  2.322602  0  1.625646  0  0  2.224394  0  1.985258  0  0  2.268073  0  1.940827  0  0  1.51058  2.133271  0  2.13001  0
Sm  Sm3  1  0.10996812  0.50285925  0.87553398  1  0  2.32259  0  1.625638  0  0  2.224384  0  1.985253  0  0  2.268061  0  1.940825  0  0  1.510592  2.133234  0  2.130044  0
H  H4  1  0.85646863  0.57231883  0.37689374  1  0  0.118627  0  0.935192  0  0  0.129683  0  0.990849  0  0  0.133191  0  0.98942  0  0  0.113933  0.12698  0  0.992349  0
H  H5  1  0.14352666  0.07232470  0.12310601  1  0  0.118628  0  0.935115  0  0  0.129664  0  0.9908  0  0  0.133172  0  0.98937  0  0  0.113937  0.12696  0  0.992303  0
H  H6  1  0.14352918  0.42767487  0.62310713  1  0  0.118609  0  0.935131  0  0  0.129654  0  0.990808  0  0  0.13316  0  0.98938  0  0  0.113933  0.126955  0  0.992299  0
H  H7  1  0.85646968  0.92768191  0.87689265  1  0  0.118647  0  0.935164  0  0  0.129686  0  0.990846  0  0  0.133191  0  0.989421  0  0  0.11395  0.126985  0  0.992344  0
H  H8  1  0.74426883  0.65721653  0.59920321  1  0  0.122148  0  0.941675  0  0  0.130013  0  1.002855  0  0  0.133887  0  1.000789  0  0  0.117566  0.127262  0  1.004339  0
H  H9  1  0.25573255  0.15721909  0.90079566  1  0  0.122108  0  0.94175  0  0  0.129977  0  1.002918  0  0  0.13385  0  1.000854  0  0  0.117558  0.127225  0  1.0044  0
H  H10  1  0.25572897  0.34278115  0.40079602  1  0  0.122095  0  0.941748  0  0  0.129954  0  1.002937  0  0  0.133828  0  1.000874  0  0  0.117557  0.127203  0  1.004419  0
H  H11  1  0.74426963  0.84278455  0.09920152  1  0  0.12214  0  0.941704  0  0  0.129994  0  1.002892  0  0  0.133869  0  1.000826  0  0  0.11756  0.127244  0  1.004375  0
H  H12  1  0.65184231  0.41713598  0.61285921  1  0  0.0743  0  0.940878  0  0  0.083287  0  1.004335  0  0  0.084873  0  1.004352  0  0  0.113528  0.081986  0  1.004626  0
H  H13  1  0.34816093  0.91713966  0.88714230  1  0  0.074316  0  0.940824  0  0  0.083299  0  1.004288  0  0  0.084887  0  1.004303  0  0  0.113526  0.081997  0  1.004577  0
H  H14  1  0.34815550  0.58285970  0.38714219  1  0  0.074285  0  0.940843  0  0  0.083269  0  1.004296  0  0  0.084855  0  1.004313  0  0  0.113512  0.081969  0  1.004584  0
H  H15  1  0.65184418  0.08286298  0.11285711  1  0  0.074305  0  0.9408  0  0  0.083299  0  1.004259  0  0  0.084885  0  1.004276  0  0  0.113513  0.081998  0  1.004547  0
H  H16  1  0.75990043  0.33564763  0.39944184  1  0  0.071973  0  0.955989  0  0  0.080358  0  1.02105  0  0  0.081754  0  1.021138  0  0  0.113525  0.079093  0  1.021417  0
H  H17  1  0.24010256  0.83565166  0.10055905  1  0  0.071979  0  0.955997  0  0  0.080312  0  1.021098  0  0  0.081704  0  1.021195  0  0  0.113526  0.079054  0  1.021463  0
H  H18  1  0.24009738  0.66434905  0.60055902  1  0  0.071984  0  0.955956  0  0  0.080341  0  1.021038  0  0  0.081734  0  1.021134  0  0  0.113531  0.079079  0  1.021404  0
H  H19  1  0.75990109  0.16435397  0.89944086  1  0  0.072025  0  0.95605  0  0  0.080412  0  1.021099  0  0  0.081809  0  1.021184  0  0  0.113553  0.079148  0  1.021464  0
H  H20  1  0.69199246  0.70420540  0.24067354  1  0  0.316163  0  0.932515  0  0  0.291697  0  1.001985  0  0  0.301873  0  0.99302  0  0  0.314207  0.284543  0  1.007939  0
H  H21  1  0.30801033  0.20420721  0.25932470  1  0  0.316136  0  0.932557  0  0  0.291685  0  1.002004  0  0  0.301859  0  0.993042  0  0  0.31423  0.284532  0  1.007956  0
H  H22  1  0.30801119  0.29579228  0.75932529  1  0  0.316156  0  0.932527  0  0  0.291696  0  1.001987  0  0  0.301871  0  0.993024  0  0  0.314229  0.284543  0  1.00794  0
H  H23  1  0.69199479  0.79579245  0.74067579  1  0  0.31614  0  0.932571  0  0  0.291682  0  1.002017  0  0  0.301856  0  0.993057  0  0  0.314233  0.284529  0  1.00797  0
H  H24  1  0.62429038  0.84803398  0.35165388  1  0  0.111035  0  0.947104  0  0  0.117107  0  1.010959  0  0  0.12036  0  1.007558  0  0  0.146823  0.114605  0  1.013649  0
H  H25  1  0.37571408  0.34803700  0.14834379  1  0  0.110989  0  0.947117  0  0  0.11705  0  1.01101  0  0  0.120304  0  1.007606  0  0  0.146809  0.114549  0  1.013699  0
H  H26  1  0.37572058  0.15196270  0.64834457  1  0  0.111017  0  0.947091  0  0  0.117087  0  1.010951  0  0  0.120341  0  1.00755  0  0  0.146828  0.114582  0  1.013652  0
H  H27  1  0.62428958  0.65196365  0.85165558  1  0  0.110983  0  0.947138  0  0  0.11705  0  1.011008  0  0  0.120305  0  1.007605  0  0  0.146799  0.114541  0  1.013722  0
H  H28  1  0.31265897  0.93571696  0.52119542  1  0  0.440973  0  0.841207  0  0  0.41395  0  0.903818  0  0  0.424557  0  0.888047  0  0  0.308308  0.406327  0  0.914918  0
H  H29  1  0.68734429  0.43571773  0.97880445  1  0  0.44095  0  0.841245  0  0  0.413933  0  0.903842  0  0  0.424536  0  0.888077  0  0  0.30829  0.406308  0  0.914943  0
H  H30  1  0.68734616  0.06428071  0.47880561  1  0  0.440959  0  0.841248  0  0  0.413932  0  0.903852  0  0  0.424537  0  0.888084  0  0  0.308283  0.406308  0  0.914954  0
H  H31  1  0.31265790  0.56428193  0.02119543  1  0  0.440985  0  0.841208  0  0  0.413966  0  0.903798  0  0  0.42457  0  0.888031  0  0  0.308313  0.406344  0  0.914896  0
H  H32  1  0.31661140  0.79783056  0.47969068  1  0  0.39274  0  0.927755  0  0  0.349675  0  1.011849  0  0  0.361095  0  0.995766  0  0  0.283663  0.341595  0  1.022983  0
H  H33  1  0.68338860  0.29783102  0.02030908  1  0  0.392771  0  0.927687  0  0  0.349706  0  1.011788  0  0  0.361127  0  0.995704  0  0  0.283672  0.341625  0  1.022922  0
H  H34  1  0.68338787  0.20216711  0.52031076  1  0  0.392791  0  0.927659  0  0  0.349729  0  1.011753  0  0  0.361149  0  0.99567  0  0  0.283687  0.341648  0  1.022887  0
H  H35  1  0.31661505  0.70216964  0.97969084  1  0  0.392765  0  0.927719  0  0  0.349712  0  1.011788  0  0  0.361132  0  0.995704  0  0  0.283685  0.341632  0  1.022922  0
C  C36  1  0.80706837  0.63241115  0.48662413  1  0  -0.020257  0  3.71435  0  0  -0.001967  0  3.943414  0  0  -0.005794  0  3.964555  0  0  0.004842  0.000177  0  3.930504  0
C  C37  1  0.19293286  0.13241424  0.01337464  1  0  -0.020288  0  3.7143  0  0  -0.001988  0  3.943389  0  0  -0.005818  0  3.964536  0  0  0.004846  0.000156  0  3.930476  0
C  C38  1  0.19293090  0.36758454  0.51337406  1  0  -0.020333  0  3.714353  0  0  -0.00203  0  3.943433  0  0  -0.00586  0  3.964577  0  0  0.004817  0.000113  0  3.930526  0
C  C39  1  0.80706933  0.86759139  0.98662307  1  0  -0.02027  0  3.714146  0  0  -0.001958  0  3.94321  0  0  -0.005786  0  3.964354  0  0  0.004864  0.000187  0  3.930304  0
C  C40  1  0.87898804  0.77229890  0.47708156  1  0  0.721254  0  3.859902  0  0  0.675726  0  4.150591  0  0  0.711332  0  4.137672  0  0  0.240882  0.651345  0  4.154679  0
C  C41  1  0.12100169  0.27230192  0.02291906  1  0  0.721271  0  3.859869  0  0  0.675687  0  4.150647  0  0  0.711295  0  4.137726  0  0  0.240896  0.651306  0  4.154732  0
C  C42  1  0.12100245  0.22769977  0.52291968  1  0  0.721294  0  3.859885  0  0  0.675711  0  4.150656  0  0  0.711319  0  4.137735  0  0  0.240869  0.651325  0  4.154753  0
C  C43  1  0.87899026  0.72770271  0.97707950  1  0  0.721344  0  3.859836  0  0  0.675763  0  4.150615  0  0  0.71137  0  4.137695  0  0  0.240894  0.651372  0  4.154719  0
C  C44  1  0.80858372  0.54146072  0.42946707  1  0  -0.124529  0  3.723478  0  0  -0.147649  0  3.974283  0  0  -0.152082  0  3.995729  0  0  -0.077446  -0.14496  0  3.960602  0
C  C45  1  0.19141445  0.04146472  0.07053221  1  0  -0.124413  0  3.723439  0  0  -0.147515  0  3.974209  0  0  -0.151946  0  3.995655  0  0  -0.077425  -0.144828  0  3.960531  0
C  C46  1  0.19141262  0.45853497  0.57053213  1  0  -0.124424  0  3.723402  0  0  -0.147539  0  3.974187  0  0  -0.151971  0  3.995635  0  0  -0.077422  -0.14485  0  3.960511  0
C  C47  1  0.80858481  0.95854090  0.92946543  1  0  -0.124471  0  3.72338  0  0  -0.147598  0  3.974205  0  0  -0.15203  0  3.995652  0  0  -0.077452  -0.144909  0  3.960526  0
C  C48  1  0.74730367  0.58863406  0.55364794  1  0  -0.10978  0  3.692414  0  0  -0.132701  0  3.942207  0  0  -0.136637  0  3.962063  0  0  -0.070736  -0.130077  0  3.929594  0
C  C49  1  0.25269761  0.08863854  0.94635096  1  0  -0.109751  0  3.69238  0  0  -0.132668  0  3.942182  0  0  -0.136602  0  3.962038  0  0  -0.070746  -0.130042  0  3.929564  0
C  C50  1  0.25269413  0.41136163  0.44635076  1  0  -0.109664  0  3.692478  0  0  -0.132583  0  3.942266  0  0  -0.136517  0  3.962122  0  0  -0.070702  -0.129958  0  3.929649  0
C  C51  1  0.74730312  0.91136709  0.05364835  1  0  -0.109808  0  3.692474  0  0  -0.132709  0  3.942273  0  0  -0.136644  0  3.962127  0  0  -0.07076  -0.130083  0  3.929655  0
C  C52  1  0.69619170  0.45574785  0.56112395  1  0  0.119423  0  3.71331  0  0  0.089083  0  3.973987  0  0  0.093729  0  3.992293  0  0  0.048585  0.085949  0  3.961789  0
C  C53  1  0.30381013  0.95575441  0.93887643  1  0  0.119475  0  3.713078  0  0  0.08914  0  3.973751  0  0  0.093783  0  3.992059  0  0  0.04862  0.086006  0  3.961551  0
C  C54  1  0.30380610  0.54424584  0.43887583  1  0  0.119423  0  3.713229  0  0  0.089093  0  3.973886  0  0  0.093737  0  3.992193  0  0  0.04858  0.085958  0  3.961686  0
C  C55  1  0.69619207  0.04425122  0.06112291  1  0  0.119448  0  3.713335  0  0  0.089075  0  3.974022  0  0  0.093719  0  3.992328  0  0  0.048596  0.085942  0  3.961818  0
C  C56  1  0.75515734  0.41049532  0.44203198  1  0  0.113206  0  3.724268  0  0  0.085553  0  3.979123  0  0  0.089703  0  3.998312  0  0  0.045408  0.082788  0  3.966746  0
C  C57  1  0.24484722  0.91049941  0.05797000  1  0  0.113111  0  3.724218  0  0  0.08551  0  3.979054  0  0  0.08966  0  3.998238  0  0  0.045355  0.082735  0  3.966689  0
C  C58  1  0.24484339  0.58950136  0.55796895  1  0  0.11309  0  3.724326  0  0  0.08547  0  3.97916  0  0  0.089621  0  3.998344  0  0  0.045357  0.082701  0  3.966789  0
C  C59  1  0.75515790  0.08950621  0.94203049  1  0  0.113106  0  3.724287  0  0  0.085448  0  3.979141  0  0  0.089601  0  3.998324  0  0  0.045363  0.082683  0  3.966763  0
C  C60  1  0.51313126  0.80633376  0.31391283  1  0  0.284565  0  3.613149  0  0  0.222802  0  3.893348  0  0  0.237499  0  3.902144  0  0  0.168944  0.213014  0  3.885807  0
C  C61  1  0.48687168  0.30633582  0.18608536  1  0  0.284621  0  3.613187  0  0  0.222828  0  3.893442  0  0  0.237526  0  3.902239  0  0  0.168936  0.213041  0  3.885897  0
C  C62  1  0.48687386  0.19366391  0.68608657  1  0  0.284569  0  3.613158  0  0  0.222782  0  3.893401  0  0  0.237478  0  3.902201  0  0  0.168906  0.212992  0  3.885858  0
C  C63  1  0.51313198  0.69366583  0.81391509  1  0  0.284578  0  3.613261  0  0  0.222792  0  3.893489  0  0  0.237489  0  3.902288  0  0  0.168947  0.213  0  3.885946  0
C  C64  1  0.38113903  0.68867293  0.22179530  1  0  0.002571  0  3.670694  0  0  -0.010892  0  3.925372  0  0  -0.0122  0  3.943042  0  0  0.092142  -0.010505  0  3.914957  0
C  C65  1  0.61885935  0.18867295  0.27820230  1  0  0.002639  0  3.670876  0  0  -0.010862  0  3.925489  0  0  -0.012171  0  3.943162  0  0  0.092154  -0.010476  0  3.915074  0
C  C66  1  0.61886316  0.31132773  0.77820349  1  0  0.002537  0  3.670855  0  0  -0.010926  0  3.925479  0  0  -0.012235  0  3.943151  0  0  0.092142  -0.01054  0  3.915064  0
C  C67  1  0.38113992  0.81132770  0.72179806  1  0  0.002619  0  3.670732  0  0  -0.010881  0  3.925377  0  0  -0.012193  0  3.943051  0  0  0.092161  -0.010494  0  3.914963  0
C  C68  1  0.23549048  0.75506725  0.25688924  1  0  -0.000438  0  3.764853  0  0  -0.006708  0  4.028312  0  0  -0.007868  0  4.045987  0  0  0.085424  -0.005712  0  4.013684  0
C  C69  1  0.76450946  0.25506743  0.24310946  1  0  -0.000514  0  3.764964  0  0  -0.006702  0  4.028338  0  0  -0.007864  0  4.046015  0  0  0.085414  -0.005705  0  4.013708  0
C  C70  1  0.76451172  0.24493341  0.74311173  1  0  -0.000369  0  3.764916  0  0  -0.006665  0  4.028355  0  0  -0.007826  0  4.046034  0  0  0.085415  -0.005668  0  4.013729  0
C  C71  1  0.23549273  0.74493124  0.75689042  1  0  -0.000507  0  3.76501  0  0  -0.006699  0  4.028373  0  0  -0.007859  0  4.046052  0  0  0.085456  -0.005703  0  4.013748  0
C  C72  1  0.02188077  0.77225404  0.24314490  1  0  0.702026  0  3.878786  0  0  0.65538  0  4.178606  0  0  0.690665  0  4.164581  0  0  0.233541  0.631014  0  4.1845  0
C  C73  1  0.97811920  0.27225635  0.25685487  1  0  0.70208  0  3.878746  0  0  0.655373  0  4.178627  0  0  0.69066  0  4.164602  0  0  0.233557  0.631007  0  4.184517  0
C  C74  1  0.97812144  0.22774363  0.75685769  1  0  0.701793  0  3.879102  0  0  0.655198  0  4.178832  0  0  0.690485  0  4.16481  0  0  0.233508  0.630831  0  4.184726  0
C  C75  1  0.02188153  0.72774431  0.74314606  1  0  0.702118  0  3.878704  0  0  0.655444  0  4.178526  0  0  0.690731  0  4.1645  0  0  0.233562  0.631078  0  4.184423  0
C  C76  1  0.39114398  0.60905157  0.15464816  1  0  0.689491  0  3.9294  0  0  0.643141  0  4.229784  0  0  0.677626  0  4.218022  0  0  0.232317  0.618833  0  4.23581  0
C  C77  1  0.60885281  0.10905050  0.34534998  1  0  0.689435  0  3.929448  0  0  0.643181  0  4.229682  0  0  0.677666  0  4.21792  0  0  0.232286  0.618876  0  4.235708  0
C  C78  1  0.60885089  0.39094908  0.84535101  1  0  0.689473  0  3.929503  0  0  0.643196  0  4.229766  0  0  0.677681  0  4.218002  0  0  0.232286  0.618892  0  4.235788  0
C  C79  1  0.39114938  0.89094717  0.65465098  1  0  0.689541  0  3.929357  0  0  0.64321  0  4.229705  0  0  0.677696  0  4.217942  0  0  0.232283  0.618905  0  4.235735  0
N  N80  1  0.32106340  0.82814420  0.31365203  1  0  -0.511179  0  3.213725  0  0  -0.469523  0  3.498032  0  0  -0.485346  0  3.512955  0  0  -0.42066  -0.451446  0  3.486164  0
N  N81  1  0.67894103  0.32814639  0.18634728  1  0  -0.511197  0  3.21381  0  0  -0.469543  0  3.4981  0  0  -0.485368  0  3.513024  0  0  -0.420642  -0.451462  0  3.48623  0
N  N82  1  0.67894318  0.17185347  0.68634904  1  0  -0.511176  0  3.213735  0  0  -0.469504  0  3.498044  0  0  -0.485331  0  3.512968  0  0  -0.420654  -0.451427  0  3.486176  0
N  N83  1  0.32106116  0.67185426  0.81365315  1  0  -0.511172  0  3.213792  0  0  -0.469532  0  3.498084  0  0  -0.485358  0  3.51301  0  0  -0.42066  -0.451452  0  3.486216  0
N  N84  1  0.70096190  0.36758970  0.50664283  1  0  -0.296829  0  3.174279  0  0  -0.233263  0  3.418708  0  0  -0.246101  0  3.436079  0  0  -0.299195  -0.224526  0  3.407281  0
N  N85  1  0.29903541  0.86759517  0.99335748  1  0  -0.296845  0  3.174037  0  0  -0.233285  0  3.418435  0  0  -0.246123  0  3.435806  0  0  -0.299177  -0.224553  0  3.407013  0
N  N86  1  0.29903298  0.63240499  0.49335689  1  0  -0.296757  0  3.1742  0  0  -0.233183  0  3.418581  0  0  -0.24602  0  3.435952  0  0  -0.299138  -0.224451  0  3.407155  0
N  N87  1  0.70096385  0.13240946  0.00664179  1  0  -0.29687  0  3.174218  0  0  -0.233263  0  3.418631  0  0  -0.2461  0  3.436  0  0  -0.299181  -0.224526  0  3.407201  0
N  N88  1  0.55362329  0.72444978  0.25913095  1  0  -0.289114  0  3.410928  0  0  -0.224544  0  3.642111  0  0  -0.240252  0  3.65523  0  0  -0.362995  -0.21431  0  3.634433  0
N  N89  1  0.44637806  0.22445073  0.24086724  1  0  -0.289112  0  3.411065  0  0  -0.224542  0  3.642257  0  0  -0.24025  0  3.655377  0  0  -0.363021  -0.214307  0  3.634578  0
N  N90  1  0.44638036  0.27554789  0.74086788  1  0  -0.289077  0  3.410952  0  0  -0.224502  0  3.642138  0  0  -0.240212  0  3.65526  0  0  -0.362967  -0.214267  0  3.634461  0
N  N91  1  0.55362559  0.77554893  0.75913321  1  0  -0.289102  0  3.410926  0  0  -0.224495  0  3.642076  0  0  -0.240204  0  3.6552  0  0  -0.363028  -0.214258  0  3.634397  0
O  O92  1  0.95069167  0.87768190  0.26846326  1  0  -0.685583  0  1.949915  0  0  -0.650586  0  2.190969  0  0  -0.673142  0  2.179982  0  0  -0.365613  -0.628069  0  2.199972  0
O  O93  1  0.04930846  0.37768556  0.23153755  1  0  -0.685567  0  1.94989  0  0  -0.650576  0  2.190991  0  0  -0.673124  0  2.179985  0  0  -0.365615  -0.628059  0  2.199995  0
O  O94  1  0.04931053  0.12231577  0.73153987  1  0  -0.685485  0  1.950032  0  0  -0.650508  0  2.191066  0  0  -0.673055  0  2.180062  0  0  -0.365606  -0.627994  0  2.20007  0
O  O95  1  0.95069373  0.62231609  0.76846233  1  0  -0.685546  0  1.949904  0  0  -0.650561  0  2.190982  0  0  -0.673108  0  2.179976  0  0  -0.365587  -0.628042  0  2.199987  0
O  O96  1  0.93108368  0.80511955  0.41483766  1  0  -0.719718  0  2.038787  0  0  -0.679196  0  2.293433  0  0  -0.704391  0  2.282681  0  0  -0.380938  -0.654137  0  2.301621  0
O  O97  1  0.06890172  0.30511648  0.08516447  1  0  -0.719747  0  2.038846  0  0  -0.679176  0  2.293491  0  0  -0.70438  0  2.28275  0  0  -0.38096  -0.654112  0  2.301679  0
O  O98  1  0.06890682  0.19488110  0.58516466  1  0  -0.719711  0  2.038835  0  0  -0.679148  0  2.293496  0  0  -0.704339  0  2.282726  0  0  -0.380936  -0.654088  0  2.301688  0
O  O99  1  0.93108877  0.69488318  0.91483515  1  0  -0.719763  0  2.03887  0  0  -0.679205  0  2.293531  0  0  -0.704394  0  2.282757  0  0  -0.380943  -0.654139  0  2.301725  0
O  O100  1  0.91881892  0.68291172  0.20923074  1  0  -0.740558  0  2.065689  0  0  -0.698407  0  2.320632  0  0  -0.721547  0  2.304667  0  0  -0.383934  -0.673842  0  2.333319  0
O  O101  1  0.08118092  0.18291431  0.29076907  1  0  -0.740535  0  2.065615  0  0  -0.698376  0  2.320595  0  0  -0.721513  0  2.304624  0  0  -0.38395  -0.673815  0  2.333281  0
O  O102  1  0.08118182  0.31708695  0.79077128  1  0  -0.740436  0  2.065799  0  0  -0.698298  0  2.320706  0  0  -0.72144  0  2.304743  0  0  -0.383921  -0.673734  0  2.333393  0
O  O103  1  0.91882129  0.81708932  0.70923352  1  0  -0.740569  0  2.065582  0  0  -0.698426  0  2.320549  0  0  -0.721565  0  2.304579  0  0  -0.383973  -0.673866  0  2.333236  0
O  O104  1  0.31627898  0.89766761  0.47219212  1  0  -0.914247  0  1.918221  0  0  -0.872744  0  2.127205  0  0  -0.890663  0  2.093656  0  0  -0.653005  -0.85245  0  2.154188  0
O  O105  1  0.68371825  0.39767004  0.02780753  1  0  -0.914213  0  1.918172  0  0  -0.872718  0  2.127148  0  0  -0.890635  0  2.093596  0  0  -0.65299  -0.85245  0  2.15419  0
O  O106  1  0.68371737  0.10232708  0.52780979  1  0  -0.914266  0  1.918131  0  0  -0.872761  0  2.12709  0  0  -0.89068  0  2.09354  0  0  -0.652997  -0.85249  0  2.154114  0
O  O107  1  0.31627955  0.60233161  0.97219171  1  0  -0.914276  0  1.918193  0  0  -0.87278  0  2.127169  0  0  -0.890699  0  2.093619  0  0  -0.653018  -0.852483  0  2.15415  0
O  O108  1  0.23357637  0.56867493  0.12112323  1  0  -0.729941  0  2.042764  0  0  -0.684628  0  2.295022  0  0  -0.708176  0  2.281493  0  0  -0.371795  -0.660658  0  2.306469  0
O  O109  1  0.76641745  0.06867591  0.37887540  1  0  -0.729907  0  2.04271  0  0  -0.684659  0  2.294992  0  0  -0.708207  0  2.281462  0  0  -0.371742  -0.660688  0  2.306437  0
O  O110  1  0.76641558  0.43132771  0.87887479  1  0  -0.729907  0  2.042771  0  0  -0.684644  0  2.295039  0  0  -0.708193  0  2.281506  0  0  -0.371733  -0.66067  0  2.306483  0
O  O111  1  0.23358183  0.93132475  0.62112658  1  0  -0.729975  0  2.042591  0  0  -0.684703  0  2.294907  0  0  -0.708253  0  2.281373  0  0  -0.371772  -0.660735  0  2.306355  0
O  O112  1  0.56138972  0.58935075  0.13380024  1  0  -0.709649  0  2.034062  0  0  -0.668905  0  2.288872  0  0  -0.692123  0  2.277076  0  0  -0.379085  -0.645234  0  2.299525  0
O  O113  1  0.43860412  0.08935350  0.36619676  1  0  -0.709686  0  2.034058  0  0  -0.668967  0  2.28882  0  0  -0.69218  0  2.277014  0  0  -0.37911  -0.645299  0  2.299472  0
O  O114  1  0.43860369  0.41064792  0.86619673  1  0  -0.709706  0  2.034085  0  0  -0.668987  0  2.28886  0  0  -0.6922  0  2.277054  0  0  -0.379124  -0.645316  0  2.29951  0
O  O115  1  0.56139515  0.91064815  0.63380360  1  0  -0.709723  0  2.034099  0  0  -0.668987  0  2.288915  0  0  -0.692196  0  2.277102  0  0  -0.379095  -0.645319  0  2.299565  0
O  O116  1  0.88725729  0.84759871  0.53219045  1  0  -0.751293  0  2.079782  0  0  -0.710132  0  2.351102  0  0  -0.733896  0  2.334884  0  0  -0.408815  -0.682823  0  2.362179  0
O  O117  1  0.11273707  0.34760107  0.96780980  1  0  -0.751267  0  2.079744  0  0  -0.710139  0  2.351192  0  0  -0.733903  0  2.334973  0  0  -0.40882  -0.682824  0  2.362265  0
O  O118  1  0.11273467  0.15239996  0.46780973  1  0  -0.751354  0  2.079763  0  0  -0.710207  0  2.351173  0  0  -0.733973  0  2.334952  0  0  -0.408836  -0.682894  0  2.362252  0
O  O119  1  0.88726073  0.65240257  0.03218890  1  0  -0.751324  0  2.079794  0  0  -0.710149  0  2.351144  0  0  -0.733913  0  2.334917  0  0  -0.408817  -0.682831  0  2.362229  0
