# generated using pymatgen
data_PrH21C24NCl3O8
_symmetry_space_group_name_H-M   'P 1'
_cell_length_a   9.50611804
_cell_length_b   11.79370740
_cell_length_c   14.34329215
_cell_angle_alpha   82.35997631
_cell_angle_beta   78.25211077
_cell_angle_gamma   76.56366883
_symmetry_Int_Tables_number   1
_chemical_formula_structural   PrH21C24NCl3O8
_chemical_formula_sum   'Pr2 H42 C48 N2 Cl6 O16'
_cell_volume   1525.07890533
_cell_formula_units_Z   2
loop_
 _symmetry_equiv_pos_site_id
 _symmetry_equiv_pos_as_xyz
  1  'x, y, z'
loop_
 _atom_site_type_symbol
 _atom_site_label
 _atom_site_symmetry_multiplicity
 _atom_site_fract_x
 _atom_site_fract_y
 _atom_site_fract_z
 _atom_site_occupancy
 _atom_site_hle17_bader_spin_density
 _atom_site_hle17_ddec_charge
 _atom_site_hle17_ddec_spin_density
 _atom_site_hle17_ddec_sum_bond_order
 _atom_site_hle17_magmom
 _atom_site_hse06_10hf_bader_spin_density
 _atom_site_hse06_10hf_ddec_charge
 _atom_site_hse06_10hf_ddec_spin_density
 _atom_site_hse06_10hf_ddec_sum_bond_order
 _atom_site_hse06_10hf_magmom
 _atom_site_hse06_bader_spin_density
 _atom_site_hse06_ddec_charge
 _atom_site_hse06_ddec_spin_density
 _atom_site_hse06_ddec_sum_bond_order
 _atom_site_hse06_magmom
 _atom_site_pbe_bader_spin_density
 _atom_site_pbe_cm5_charge
 _atom_site_pbe_ddec_charge
 _atom_site_pbe_ddec_spin_density
 _atom_site_pbe_ddec_sum_bond_order
 _atom_site_pbe_magmom
Pr  Pr0  1  0.29388035  0.44875160  0.49747302  1  0  2.330343  0  1.635996  0  0  2.21295  0  2.021721  0  0  2.252622  0  1.975158  0  0  1.479371  2.139819  0  2.136282  0
Pr  Pr1  1  0.70611654  0.55125539  0.50252343  1  0  2.330299  0  1.635979  0  0  2.212909  0  2.021702  0  0  2.252577  0  1.975136  0  0  1.479359  2.139795  0  2.136238  0
H  H2  1  0.91545142  0.59523085  0.19657989  1  0  0.101244  0  0.953182  0  0  0.108426  0  1.019755  0  0  0.111819  0  1.017165  0  0  0.105699  0.105896  0  1.021858  0
H  H3  1  0.08454510  0.40476915  0.80341874  1  0  0.101341  0  0.953171  0  0  0.108479  0  1.019786  0  0  0.111876  0  1.017191  0  0  0.105691  0.105947  0  1.021891  0
H  H4  1  0.02306871  0.61067482  0.02253033  1  0  0.106368  0  0.962893  0  0  0.113543  0  1.028478  0  0  0.116747  0  1.027452  0  0  0.096311  0.111258  0  1.029302  0
H  H5  1  0.97692290  0.38931909  0.97747031  1  0  0.106351  0  0.962843  0  0  0.113572  0  1.02841  0  0  0.116771  0  1.027389  0  0  0.096298  0.111284  0  1.029239  0
H  H6  1  0.43018493  0.38999171  0.08281484  1  0  0.103615  0  0.96996  0  0  0.107751  0  1.042104  0  0  0.111134  0  1.040737  0  0  0.094499  0.105258  0  1.043275  0
H  H7  1  0.56980364  0.61000573  0.91718516  1  0  0.103655  0  0.970015  0  0  0.107797  0  1.042158  0  0  0.111182  0  1.040791  0  0  0.094519  0.105307  0  1.043327  0
H  H8  1  0.32334314  0.37822982  0.25735591  1  0  0.115426  0  0.947793  0  0  0.120668  0  1.014884  0  0  0.124908  0  1.011058  0  0  0.11564  0.117865  0  1.017032  0
H  H9  1  0.67664991  0.62177543  0.74264335  1  0  0.115329  0  0.947802  0  0  0.120569  0  1.01491  0  0  0.124815  0  1.011079  0  0  0.115631  0.117768  0  1.017055  0
H  H10  1  0.70700475  0.34383375  0.79660006  1  0  0.100848  0  0.964477  0  0  0.110136  0  1.027417  0  0  0.112206  0  1.027617  0  0  0.104047  0.108574  0  1.027497  0
H  H11  1  0.29299884  0.65617230  0.20339695  1  0  0.100837  0  0.964571  0  0  0.110121  0  1.027505  0  0  0.112189  0  1.027703  0  0  0.104052  0.108559  0  1.027583  0
H  H12  1  0.68297174  0.24365834  0.96220509  1  0  0.104405  0  0.957409  0  0  0.11308  0  1.021632  0  0  0.116032  0  1.020807  0  0  0.09694  0.110996  0  1.022269  0
H  H13  1  0.31704440  0.75633625  0.03779066  1  0  0.104514  0  0.957443  0  0  0.113191  0  1.021644  0  0  0.116143  0  1.020819  0  0  0.096986  0.111108  0  1.022282  0
H  H14  1  0.29294461  0.14218251  0.92351359  1  0  0.096618  0  0.980099  0  0  0.104738  0  1.046535  0  0  0.108039  0  1.04464  0  0  0.087313  0.102378  0  1.047945  0
H  H15  1  0.70706919  0.85781295  0.07648448  1  0  0.096604  0  0.980015  0  0  0.10472  0  1.046466  0  0  0.108022  0  1.04457  0  0  0.087287  0.102359  0  1.047877  0
H  H16  1  0.32023335  0.24185936  0.75699974  1  0  0.098659  0  0.95727  0  0  0.108746  0  1.019089  0  0  0.111719  0  1.016727  0  0  0.105004  0.106478  0  1.021054  0
H  H17  1  0.67977747  0.75814392  0.24300421  1  0  0.09862  0  0.9573  0  0  0.1087  0  1.019141  0  0  0.111673  0  1.016779  0  0  0.104999  0.10643  0  1.021105  0
H  H18  1  0.55776713  0.20193436  0.24928282  1  0  0.109733  0  0.93476  0  0  0.120384  0  0.991572  0  0  0.123969  0  0.988955  0  0  0.109408  0.117672  0  0.99378  0
H  H19  1  0.44222764  0.79806393  0.75071343  1  0  0.109775  0  0.934643  0  0  0.120426  0  0.991448  0  0  0.124009  0  0.988834  0  0  0.109408  0.117714  0  0.993658  0
H  H20  1  0.73203005  0.12006985  0.10714967  1  0  0.100181  0  0.977545  0  0  0.106831  0  1.045426  0  0  0.110405  0  1.043326  0  0  0.092567  0.104237  0  1.047054  0
H  H21  1  0.26797668  0.87992825  0.89285331  1  0  0.100137  0  0.977466  0  0  0.106782  0  1.045363  0  0  0.11036  0  1.043262  0  0  0.092555  0.104191  0  1.046993  0
H  H22  1  0.07100775  0.26534067  0.17654207  1  0  0.112808  0  0.947427  0  0  0.122114  0  1.00734  0  0  0.124871  0  1.007261  0  0  0.103206  0.120144  0  1.007511  0
H  H23  1  0.92898723  0.73465746  0.82346952  1  0  0.112689  0  0.947515  0  0  0.12208  0  1.007337  0  0  0.124838  0  1.007256  0  0  0.103205  0.120109  0  1.007509  0
H  H24  1  0.89438235  0.34624331  0.31827739  1  0  0.096114  0  0.990621  0  0  0.104512  0  1.0551  0  0  0.10739  0  1.053268  0  0  0.10709  0.102371  0  1.056522  0
H  H25  1  0.10560367  0.65376021  0.68172791  1  0  0.09614  0  0.990477  0  0  0.104483  0  1.055031  0  0  0.107361  0  1.053202  0  0  0.107089  0.10234  0  1.056456  0
H  H26  1  0.15851546  0.69074177  0.50639617  1  0  0.41994  0  0.848823  0  0  0.401176  0  0.905859  0  0  0.410344  0  0.892472  0  0  0.310485  0.394705  0  0.914284  0
H  H27  1  0.84148431  0.30926254  0.49360434  1  0  0.419874  0  0.848893  0  0  0.401116  0  0.905927  0  0  0.410281  0  0.892546  0  0  0.310447  0.394644  0  0.914329  0
H  H28  1  0.01452177  0.64190274  0.51450954  1  0  0.416825  0  0.89164  0  0  0.385195  0  0.958246  0  0  0.395905  0  0.942499  0  0  0.298062  0.377941  0  0.968569  0
H  H29  1  0.98547659  0.35810687  0.48548504  1  0  0.41674  0  0.891758  0  0  0.385095  0  0.958401  0  0  0.395816  0  0.942632  0  0  0.297998  0.37784  0  0.968725  0
H  H30  1  0.10503332  0.28275875  0.67734644  1  0  0.035552  0  0.968301  0  0  0.0433  0  1.043746  0  0  0.044804  0  1.038873  0  0  0.123934  0.042101  0  1.047024  0
H  H31  1  0.89495952  0.71724303  0.32265182  1  0  0.035477  0  0.96837  0  0  0.043309  0  1.043733  0  0  0.044758  0  1.03892  0  0  0.123911  0.042112  0  1.047006  0
H  H32  1  0.90234919  0.08809378  0.71562816  1  0  0.100966  0  0.914923  0  0  0.122981  0  0.970656  0  0  0.12367  0  0.970695  0  0  0.105367  0.122417  0  0.970702  0
H  H33  1  0.09765940  0.91190089  0.28436724  1  0  0.100909  0  0.914947  0  0  0.122985  0  0.970621  0  0  0.123675  0  0.970661  0  0  0.105379  0.12242  0  0.970667  0
H  H34  1  0.97793843  0.17821349  0.77360763  1  0  0.100225  0  0.941916  0  0  0.120279  0  1.00597  0  0  0.120407  0  1.006488  0  0  0.108179  0.119997  0  1.005805  0
H  H35  1  0.02205834  0.82178126  0.22639151  1  0  0.100248  0  0.941966  0  0  0.12029  0  1.006032  0  0  0.120419  0  1.006549  0  0  0.108207  0.120006  0  1.005864  0
H  H36  1  0.04747204  0.02332873  0.78038862  1  0  0.090607  0  0.979495  0  0  0.1058  0  1.050172  0  0  0.105733  0  1.051877  0  0  0.092341  0.105724  0  1.049098  0
H  H37  1  0.95253204  0.97666683  0.21960940  1  0  0.090566  0  0.97947  0  0  0.105765  0  1.050162  0  0  0.105698  0  1.051867  0  0  0.092332  0.105684  0  1.049093  0
H  H38  1  0.17776814  0.93770819  0.62741194  1  0  0.095365  0  0.961988  0  0  0.114448  0  1.027359  0  0  0.113746  0  1.029948  0  0  0.101165  0.114836  0  1.025651  0
H  H39  1  0.82225280  0.06228892  0.37258846  1  0  0.095464  0  0.961875  0  0  0.114535  0  1.027272  0  0  0.113832  0  1.029861  0  0  0.101178  0.114924  0  1.025563  0
H  H40  1  0.26395566  0.03418433  0.53797085  1  0  0.122516  0  0.915292  0  0  0.143111  0  0.969492  0  0  0.144569  0  0.968632  0  0  0.120104  0.141893  0  0.970357  0
H  H41  1  0.73606401  0.96581799  0.46203337  1  0  0.122405  0  0.915439  0  0  0.143055  0  0.9696  0  0  0.144506  0  0.968748  0  0  0.120096  0.141837  0  0.970465  0
H  H42  1  0.07815420  0.02526693  0.54046398  1  0  0.083734  0  0.94118  0  0  0.102958  0  1.007609  0  0  0.103502  0  1.00692  0  0  0.100106  0.102386  0  1.008347  0
H  H43  1  0.92187101  0.97473018  0.45953233  1  0  0.083735  0  0.941237  0  0  0.102967  0  1.007664  0  0  0.103516  0  1.00697  0  0  0.100079  0.102394  0  1.008403  0
C  C44  1  0.04645079  0.47886548  0.34138108  1  0  0.70528  0  3.869132  0  0  0.656582  0  4.163504  0  0  0.691632  0  4.152505  0  0  0.23422  0.632814  0  4.167121  0
C  C45  1  0.95354013  0.52113977  0.65862057  1  0  0.705183  0  3.869002  0  0  0.65656  0  4.163257  0  0  0.691613  0  4.152256  0  0  0.234227  0.632799  0  4.166863  0
C  C46  1  0.11333010  0.48731196  0.23777323  1  0  -0.088528  0  3.745202  0  0  -0.067893  0  3.980146  0  0  -0.077292  0  4.003268  0  0  -0.018814  -0.062122  0  3.965455  0
C  C47  1  0.88666079  0.51269331  0.76222633  1  0  -0.088384  0  3.745405  0  0  -0.067764  0  3.980313  0  0  -0.077162  0  4.003437  0  0  -0.018758  -0.061968  0  3.965588  0
C  C48  1  0.02907400  0.55257731  0.17138820  1  0  -0.052485  0  3.741793  0  0  -0.075994  0  3.993979  0  0  -0.074637  0  4.013848  0  0  -0.08299  -0.0769  0  3.981195  0
C  C49  1  0.97091475  0.44742364  0.82861001  1  0  -0.05272  0  3.742072  0  0  -0.076216  0  3.994295  0  0  -0.074855  0  4.014157  0  0  -0.083043  -0.077133  0  3.981509  0
C  C50  1  0.08801959  0.56036654  0.07428373  1  0  -0.151447  0  3.779513  0  0  -0.173051  0  4.031948  0  0  -0.177937  0  4.053105  0  0  -0.103656  -0.169827  0  4.017795  0
C  C51  1  0.91196963  0.43962829  0.92571575  1  0  -0.151374  0  3.779681  0  0  -0.173004  0  4.032059  0  0  -0.177886  0  4.053218  0  0  -0.103647  -0.169779  0  4.017904  0
C  C52  1  0.23248080  0.50118869  0.04357462  1  0  0.146295  0  3.790509  0  0  0.159915  0  4.049887  0  0  0.165037  0  4.070658  0  0  0.017647  0.156396  0  4.035759  0
C  C53  1  0.76750687  0.49880791  0.95642280  1  0  0.146303  0  3.790814  0  0  0.15991  0  4.050218  0  0  0.165033  0  4.07099  0  0  0.017777  0.15639  0  4.036089  0
C  C54  1  0.31790711  0.43477311  0.10842137  1  0  -0.145014  0  3.761025  0  0  -0.168583  0  4.018036  0  0  -0.173317  0  4.03856  0  0  -0.09883  -0.165374  0  4.00412  0
C  C55  1  0.68208466  0.56522433  0.89157609  1  0  -0.14516  0  3.761258  0  0  -0.168758  0  4.018308  0  0  -0.173498  0  4.038843  0  0  -0.098942  -0.165552  0  4.004389  0
C  C56  1  0.25794778  0.42835214  0.20554853  1  0  -0.036923  0  3.695369  0  0  -0.061336  0  3.948184  0  0  -0.05867  0  3.964877  0  0  -0.071735  -0.062838  0  3.936746  0
C  C57  1  0.74204636  0.57165310  0.79445128  1  0  -0.036744  0  3.69537  0  0  -0.061158  0  3.948213  0  0  -0.058501  0  3.964908  0  0  -0.071713  -0.06267  0  3.936771  0
C  C58  1  0.52075623  0.36699880  0.67048064  1  0  0.719889  0  3.869644  0  0  0.674741  0  4.163147  0  0  0.71041  0  4.150523  0  0  0.232138  0.650411  0  4.167974  0
C  C59  1  0.47924368  0.63300468  0.32951506  1  0  0.719867  0  3.869369  0  0  0.674775  0  4.162772  0  0  0.710446  0  4.150146  0  0  0.23216  0.650446  0  4.167595  0
C  C60  1  0.51415332  0.29982778  0.76725905  1  0  -0.07641  0  3.734792  0  0  -0.055888  0  3.965075  0  0  -0.064022  0  3.986607  0  0  -0.021719  -0.051174  0  3.951903  0
C  C61  1  0.48584171  0.70017830  0.23274264  1  0  -0.076378  0  3.734951  0  0  -0.05588  0  3.965216  0  0  -0.064017  0  3.986749  0  0  -0.021687  -0.051168  0  3.952041  0
C  C62  1  0.61747730  0.29850709  0.82464733  1  0  -0.045274  0  3.732222  0  0  -0.068102  0  3.979592  0  0  -0.066383  0  3.999459  0  0  -0.080635  -0.069135  0  3.966518  0
C  C63  1  0.38252978  0.70149368  0.17535044  1  0  -0.045158  0  3.73237  0  0  -0.067977  0  3.979748  0  0  -0.06625  0  3.999609  0  0  -0.08059  -0.069012  0  3.966679  0
C  C64  1  0.60383737  0.24298403  0.91715820  1  0  -0.150607  0  3.764022  0  0  -0.171879  0  4.01786  0  0  -0.17639  0  4.037984  0  0  -0.102791  -0.168882  0  4.00423  0
C  C65  1  0.39616907  0.75701500  0.08283983  1  0  -0.150804  0  3.764142  0  0  -0.172069  0  4.017997  0  0  -0.176578  0  4.038117  0  0  -0.102847  -0.169074  0  4.004371  0
C  C66  1  0.48510549  0.18880781  0.95191679  1  0  0.143754  0  3.813403  0  0  0.152094  0  4.084445  0  0  0.15676  0  4.105687  0  0  0.009885  0.148909  0  4.069974  0
C  C67  1  0.51490486  0.81118855  0.04808167  1  0  0.143685  0  3.8135  0  0  0.151982  0  4.084626  0  0  0.156647  0  4.105867  0  0  0.009885  0.1488  0  4.070153  0
C  C68  1  0.38330399  0.18614908  0.89485668  1  0  -0.153853  0  3.802021  0  0  -0.178047  0  4.059166  0  0  -0.182687  0  4.080045  0  0  -0.109094  -0.174941  0  4.044968  0
C  C69  1  0.61670617  0.81384814  0.10514381  1  0  -0.153675  0  3.801786  0  0  -0.177855  0  4.058928  0  0  -0.182496  0  4.079809  0  0  -0.109052  -0.174748  0  4.044723  0
C  C70  1  0.39876561  0.24153252  0.80274545  1  0  -0.044916  0  3.739618  0  0  -0.065795  0  3.984336  0  0  -0.064342  0  4.004049  0  0  -0.081984  -0.066707  0  3.971575  0
C  C71  1  0.60123638  0.75846736  0.19725870  1  0  -0.044938  0  3.739654  0  0  -0.065813  0  3.984376  0  0  -0.064361  0  4.004095  0  0  -0.081995  -0.066721  0  3.971609  0
C  C72  1  0.61038860  0.33053206  0.37708914  1  0  0.704062  0  3.88642  0  0  0.656453  0  4.183277  0  0  0.691385  0  4.172205  0  0  0.226226  0.632803  0  4.186278  0
C  C73  1  0.38960191  0.66947058  0.62291284  1  0  0.703957  0  3.886636  0  0  0.65649  0  4.183372  0  0  0.691417  0  4.1723  0  0  0.226146  0.632841  0  4.186375  0
C  C74  1  0.71613702  0.27857454  0.29305380  1  0  -0.082324  0  3.739335  0  0  -0.059903  0  3.971539  0  0  -0.067847  0  3.993029  0  0  -0.021124  -0.055296  0  3.958244  0
C  C75  1  0.28385217  0.72142466  0.70694454  1  0  -0.082204  0  3.739152  0  0  -0.059999  0  3.971578  0  0  -0.067937  0  3.993064  0  0  -0.02108  -0.055391  0  3.958282  0
C  C76  1  0.67029189  0.21497821  0.23312482  1  0  -0.039899  0  3.720925  0  0  -0.063802  0  3.969675  0  0  -0.062173  0  3.988419  0  0  -0.076531  -0.064817  0  3.957493  0
C  C77  1  0.32970376  0.78502094  0.76687262  1  0  -0.040055  0  3.720676  0  0  -0.063911  0  3.969505  0  0  -0.062283  0  3.988249  0  0  -0.076593  -0.064924  0  3.957322  0
C  C78  1  0.76728735  0.16933430  0.15386515  1  0  -0.161302  0  3.792643  0  0  -0.184442  0  4.051696  0  0  -0.189015  0  4.071747  0  0  -0.105258  -0.181419  0  4.038251  0
C  C79  1  0.23271315  0.83065863  0.84613784  1  0  -0.161254  0  3.792419  0  0  -0.184372  0  4.051441  0  0  -0.188949  0  4.071496  0  0  -0.105263  -0.181354  0  4.037998  0
C  C80  1  0.91054564  0.18838749  0.13431818  1  0  0.141269  0  3.820942  0  0  0.151873  0  4.088038  0  0  0.156641  0  4.108353  0  0  0.01424  0.148616  0  4.074338  0
C  C81  1  0.08945495  0.81160536  0.86569177  1  0  0.141188  0  3.821118  0  0  0.151815  0  4.088181  0  0  0.156583  0  4.108498  0  0  0.014242  0.148556  0  4.074482  0
C  C82  1  0.95919433  0.25081084  0.19304461  1  0  -0.142897  0  3.755792  0  0  -0.163683  0  4.007541  0  0  -0.168237  0  4.028249  0  0  -0.097905  -0.160722  0  3.993727  0
C  C83  1  0.04080081  0.74919081  0.80696380  1  0  -0.142894  0  3.755765  0  0  -0.163757  0  4.007502  0  0  -0.168311  0  4.02821  0  0  -0.097971  -0.160794  0  3.993688  0
C  C84  1  0.86078248  0.29527872  0.27226539  1  0  -0.046973  0  3.72682  0  0  -0.070618  0  3.974399  0  0  -0.06904  0  3.993559  0  0  -0.079452  -0.071529  0  3.961954  0
C  C85  1  0.13921152  0.70472298  0.72773899  1  0  -0.046846  0  3.726454  0  0  -0.070407  0  3.974139  0  0  -0.068833  0  3.993302  0  0  -0.079379  -0.071321  0  3.961701  0
C  C86  1  0.15124310  0.21922455  0.62346683  1  0  0.412875  0  3.823396  0  0  0.335564  0  4.122266  0  0  0.364185  0  4.120672  0  0  0.178708  0.316451  0  4.120703  0
C  C87  1  0.84875744  0.78078068  0.37652790  1  0  0.412848  0  3.82328  0  0  0.335491  0  4.122134  0  0  0.364148  0  4.120554  0  0  0.178737  0.316387  0  4.120558  0
C  C88  1  0.00433462  0.10009560  0.73430700  1  0  -0.166711  0  3.682584  0  0  -0.266662  0  3.929904  0  0  -0.263194  0  3.941611  0  0  -0.131136  -0.268734  0  3.922032  0
C  C89  1  0.99567079  0.89989907  0.26569233  1  0  -0.166649  0  3.682472  0  0  -0.266648  0  3.929799  0  0  -0.263181  0  3.941502  0  0  -0.131151  -0.268715  0  3.921926  0
C  C90  1  0.16098404  0.02262941  0.58491236  1  0  -0.156831  0  3.658509  0  0  -0.252478  0  3.897373  0  0  -0.248618  0  3.907795  0  0  -0.129426  -0.254977  0  3.890705  0
C  C91  1  0.83903624  0.97737033  0.41508786  1  0  -0.156857  0  3.658644  0  0  -0.252556  0  3.897561  0  0  -0.248692  0  3.907978  0  0  -0.129387  -0.255054  0  3.890897  0
N  N92  1  0.11252916  0.11563895  0.64864535  1  0  -0.097936  0  3.497901  0  0  0.008348  0  3.730724  0  0  -0.012341  0  3.75554  0  0  -0.282564  0.022073  0  3.713902  0
N  N93  1  0.88747604  0.88436092  0.35135696  1  0  -0.097747  0  3.497952  0  0  0.008512  0  3.730821  0  0  -0.012171  0  3.755625  0  0  -0.28255  0.02223  0  3.714  0
Cl  Cl94  1  0.30596386  0.51062245  0.92288218  1  0  -0.071273  0  1.376276  0  0  -0.045791  0  1.600308  0  0  -0.052954  0  1.601768  0  0  0.026489  -0.040578  0  1.599345  0
Cl  Cl95  1  0.69402832  0.48937326  0.07711331  1  0  -0.07123  0  1.376492  0  0  -0.045732  0  1.600523  0  0  -0.052893  0  1.601984  0  0  0.026499  -0.040519  0  1.59956  0
Cl  Cl96  1  0.46006738  0.12389349  0.06840885  1  0  -0.101318  0  1.344974  0  0  -0.07852  0  1.562978  0  0  -0.083074  0  1.558509  0  0  0.006042  -0.075001  0  1.565875  0
Cl  Cl97  1  0.53994972  0.87609320  0.93159037  1  0  -0.101323  0  1.345106  0  0  -0.078511  0  1.563137  0  0  -0.083066  0  1.558669  0  0  0.006013  -0.074992  0  1.566034  0
Cl  Cl98  1  0.02994096  0.13220585  0.03474495  1  0  -0.113095  0  1.349866  0  0  -0.09257  0  1.568671  0  0  -0.096332  0  1.562204  0  0  -0.000579  -0.089649  0  1.573148  0
Cl  Cl99  1  0.97007603  0.86778598  0.96526351  1  0  -0.112976  0  1.350056  0  0  -0.092461  0  1.568856  0  0  -0.096223  0  1.562389  0  0  -0.000516  -0.08954  0  1.573332  0
O  O100  1  0.91344509  0.53057668  0.36573750  1  0  -0.729883  0  2.070232  0  0  -0.684005  0  2.328773  0  0  -0.707313  0  2.315589  0  0  -0.384392  -0.662169  0  2.338106  0
O  O101  1  0.08654902  0.46942858  0.63426021  1  0  -0.729884  0  2.069986  0  0  -0.684016  0  2.328496  0  0  -0.707343  0  2.315327  0  0  -0.38437  -0.662157  0  2.337761  0
O  O102  1  0.12356921  0.41615356  0.40086417  1  0  -0.747742  0  2.050013  0  0  -0.692434  0  2.296294  0  0  -0.715978  0  2.281507  0  0  -0.391848  -0.670008  0  2.305978  0
O  O103  1  0.87642492  0.58385603  0.59913658  1  0  -0.747796  0  2.050008  0  0  -0.692524  0  2.296251  0  0  -0.716045  0  2.281427  0  0  -0.39189  -0.670105  0  2.305924  0
O  O104  1  0.61498356  0.43095421  0.64518124  1  0  -0.722944  0  2.022237  0  0  -0.67823  0  2.274704  0  0  -0.702568  0  2.263384  0  0  -0.390351  -0.655554  0  2.282439  0
O  O105  1  0.38500668  0.56904933  0.35481719  1  0  -0.72295  0  2.021959  0  0  -0.678262  0  2.274415  0  0  -0.702601  0  2.263094  0  0  -0.390379  -0.655582  0  2.28215  0
O  O106  1  0.42837434  0.35639601  0.62088471  1  0  -0.758116  0  2.053751  0  0  -0.716262  0  2.310562  0  0  -0.739662  0  2.296282  0  0  -0.415668  -0.693052  0  2.319855  0
O  O107  1  0.57162286  0.64360135  0.37911479  1  0  -0.758121  0  2.053669  0  0  -0.716274  0  2.310443  0  0  -0.739672  0  2.296161  0  0  -0.415714  -0.693065  0  2.319736  0
O  O108  1  0.65690100  0.38742868  0.43040769  1  0  -0.801663  0  2.086773  0  0  -0.751842  0  2.340415  0  0  -0.775542  0  2.325611  0  0  -0.391671  -0.727157  0  2.348924  0
O  O109  1  0.34308461  0.61257222  0.56959794  1  0  -0.801688  0  2.086836  0  0  -0.751865  0  2.340344  0  0  -0.775565  0  2.32554  0  0  -0.391605  -0.727178  0  2.348857  0
O  O110  1  0.47944644  0.31614939  0.39067487  1  0  -0.688554  0  1.96908  0  0  -0.646013  0  2.208222  0  0  -0.668329  0  2.194894  0  0  -0.376628  -0.625293  0  2.217559  0
O  O111  1  0.52053217  0.68385340  0.60932457  1  0  -0.688495  0  1.969334  0  0  -0.645968  0  2.208371  0  0  -0.668281  0  2.195047  0  0  -0.376605  -0.625254  0  2.217707  0
O  O112  1  0.10822576  0.65134952  0.47153457  1  0  -0.857788  0  1.848336  0  0  -0.815997  0  2.018573  0  0  -0.833537  0  1.989534  0  0  -0.60976  -0.799583  0  2.039896  0
O  O113  1  0.89177326  0.34866181  0.52846183  1  0  -0.857631  0  1.848425  0  0  -0.815843  0  2.018668  0  0  -0.833386  0  1.989629  0  0  -0.609646  -0.79943  0  2.039972  0
O  O114  1  0.23141794  0.24493853  0.54670122  1  0  -0.582802  0  2.041275  0  0  -0.538864  0  2.289096  0  0  -0.559144  0  2.27916  0  0  -0.345955  -0.519984  0  2.295883  0
O  O115  1  0.76857820  0.75506751  0.45330311  1  0  -0.582811  0  2.040987  0  0  -0.538896  0  2.288844  0  0  -0.55918  0  2.278886  0  0  -0.345959  -0.520013  0  2.295621  0
