# generated using pymatgen
data_Al2H9C20S4O16F
_symmetry_space_group_name_H-M   'P 1'
_cell_length_a   6.65994047
_cell_length_b   11.05033805
_cell_length_c   12.52832895
_cell_angle_alpha   89.59599729
_cell_angle_beta   77.98922079
_cell_angle_gamma   74.75402095
_symmetry_Int_Tables_number   1
_chemical_formula_structural   Al2H9C20S4O16F
_chemical_formula_sum   'Al2 H9 C20 S4 O16 F1'
_cell_volume   868.98274435
_cell_formula_units_Z   1
loop_
 _symmetry_equiv_pos_site_id
 _symmetry_equiv_pos_as_xyz
  1  'x, y, z'
loop_
 _atom_site_type_symbol
 _atom_site_label
 _atom_site_symmetry_multiplicity
 _atom_site_fract_x
 _atom_site_fract_y
 _atom_site_fract_z
 _atom_site_occupancy
 _atom_site_pbe_bader_charge
 _atom_site_pbe_bader_spin_density
 _atom_site_pbe_cm5_charge
 _atom_site_pbe_ddec_charge
 _atom_site_pbe_ddec_spin_density
 _atom_site_pbe_ddec_sum_bond_order
 _atom_site_pbe_magmom
Al  Al0  1  0.50462414  0.49574572  0.50006905  1  2.505989  0  0.401177  1.646942  0  2.559463  0
Al  Al1  1  0.99933054  0.50220713  0.50144965  1  2.503099  0  0.398918  1.640339  0  2.566576  0
H  H2  1  0.22662286  0.43713657  0.62803465  1  0.614232  0  0.350415  0.430142  0  0.858014  0
H  H3  1  0.75583747  0.60101379  0.38827437  1  0.647355  0  0.331739  0.43061  0  0.883028  0
H  H4  1  0.74284667  0.48472136  0.16159149  1  0.141404  0  0.117528  0.145707  0  0.995214  0
H  H5  1  0.23470199  0.22269683  0.33415643  1  0.129238  0  0.118929  0.133514  0  1.01654  0
H  H6  1  0.46842988  0.76412098  0.36278794  1  0.192226  0  0.116051  0.12789  0  1.065208  0
H  H7  1  0.76939841  0.88425110  0.58625815  1  0.113194  0  0.118049  0.12603  0  0.975179  0
H  H8  1  0.65270891  0.11784378  0.57793800  1  0.088287  0  0.116823  0.123073  0  0.976471  0
H  H9  1  0.64322845  0.29582165  0.30222582  1  0.647056  0  0.319895  0.379657  0  0.936872  0
H  H10  1  0.70162294  0.76108849  0.08601711  1  0.637981  0  0.344529  0.392991  0  0.855707  0
C  C11  1  0.87166971  0.27175269  0.48628152  1  1.553862  0  0.270438  0.642783  0  4.086087  0
C  C12  1  0.65653193  0.51956102  0.69733658  1  1.574663  0  0.261069  0.673407  0  4.139464  0
C  C13  1  0.14027220  0.72654243  0.49945817  1  1.56193  0  0.272193  0.642573  0  4.074011  0
C  C14  1  0.34560842  0.49044053  0.30359055  1  1.547427  0  0.260144  0.629649  0  4.13606  0
C  C15  1  0.39617071  0.53998544  0.88125117  1  0.544154  0  0.105908  0.261295  0  4.073685  0
C  C16  1  0.60327062  0.50142623  0.12582328  1  0.064431  0  -0.08813  -0.136716  0  3.960776  0
C  C17  1  0.59823199  0.52505450  0.81660826  1  -0.057071  0  -0.034005  -0.255255  0  3.981529  0
C  C18  1  0.39997005  0.51115120  0.18710445  1  -0.168398  0  -0.014528  -0.109478  0  3.956163  0
C  C19  1  0.60071845  0.51250593  0.01392922  1  -0.161814  0  -0.019264  0.000677  0  4.079655  0
C  C20  1  0.39438770  0.53175860  0.99348442  1  -0.102936  0  -0.027182  -0.13122  0  4.098909  0
C  C21  1  0.94528129  0.13134560  0.47696530  1  -0.006715  0  0.004919  -0.062795  0  3.899995  0
C  C22  1  0.15120309  0.06410098  0.41597205  1  0.050127  0  0.016499  0.081306  0  3.900904  0
C  C23  1  0.81096983  0.06535812  0.53455447  1  -0.006983  0  -0.066566  -0.07381  0  3.95577  0
C  C24  1  0.28809999  0.12245576  0.34401878  1  0.014768  0  -0.064473  -0.096907  0  3.88397  0
C  C25  1  0.48441772  0.05653006  0.28353799  1  -0.145888  0  -0.008866  -0.088498  0  3.933334  0
C  C26  1  0.07990370  0.86613744  0.48799246  1  0.002412  0  0.003311  -0.065143  0  3.886178  0
C  C27  1  0.87696495  0.93419180  0.53980319  1  0.022784  0  -0.067321  -0.075148  0  3.955596  0
C  C28  1  0.21853363  0.93043513  0.42267653  1  0.066622  0  0.013645  0.08323  0  3.925944  0
C  C29  1  0.41855450  0.86501897  0.35888024  1  -0.069837  0  -0.076527  -0.119528  0  3.942871  0
C  C30  1  0.55159227  0.92405796  0.29211949  1  -0.165024  0  -0.014426  -0.103481  0  3.975647  0
S  S31  1  0.79097552  0.50299535  0.89499978  1  0.281663  0  0.097086  0.152711  0  2.815886  0
S  S32  1  0.20535862  0.53598414  0.11023876  1  0.32786  0  0.122774  0.211975  0  2.857485  0
S  S33  1  0.62344011  0.14905391  0.19283840  1  3.107091  0  0.539651  1.157957  0  6.009578  0
S  S34  1  0.79769076  0.81747066  0.22525605  1  3.049665  0  0.550298  1.154561  0  5.975047  0
O  O35  1  0.67160386  0.32333288  0.50702004  1  -1.252962  0  -0.236741  -0.592477  0  2.326313  0
O  O36  1  0.85338519  0.50148140  0.65204702  1  -1.254001  0  -0.238195  -0.592419  0  2.309533  0
O  O37  1  0.98582055  0.67624092  0.52154502  1  -1.242926  0  -0.233788  -0.586134  0  2.340702  0
O  O38  1  0.50453515  0.45138129  0.35106403  1  -1.266356  0  -0.240897  -0.602869  0  2.357405  0
O  O39  1  0.33694104  0.66768347  0.48581225  1  -1.257035  0  -0.230769  -0.583101  0  2.357946  0
O  O40  1  0.15165074  0.50951000  0.35112489  1  -1.241526  0  -0.221971  -0.551947  0  2.340051  0
O  O41  1  0.01600820  0.32942239  0.47712372  1  -1.247754  0  -0.22846  -0.579624  0  2.38117  0
O  O42  1  0.50403708  0.53099288  0.64783214  1  -1.260243  0  -0.23554  -0.593581  0  2.352657  0
O  O43  1  0.25378695  0.44903779  0.55000665  1  -1.4186  0  -0.44952  -0.991295  0  2.183724  0
O  O44  1  0.74816318  0.54874048  0.45151030  1  -1.455213  0  -0.456125  -1.009112  0  2.183677  0
O  O45  1  0.73467326  0.21120401  0.27057101  1  -1.222381  0  -0.358234  -0.531878  0  2.22205  0
O  O46  1  0.79170637  0.06925499  0.11394612  1  -1.280436  0  -0.302757  -0.497601  0  2.175012  0
O  O47  1  0.46102570  0.24647772  0.15904896  1  -1.303838  0  -0.314071  -0.552433  0  2.215021  0
O  O48  1  0.78795955  0.81722893  0.09804307  1  -1.180547  0  -0.348416  -0.511381  0  2.184875  0
O  O49  1  0.97587878  0.86262738  0.23466189  1  -1.273858  0  -0.289881  -0.490317  0  2.170645  0
O  O50  1  0.78784744  0.69357855  0.26101395  1  -1.319652  0  -0.303299  -0.572283  0  2.314726  0
F  F51  1  0.21737374  0.55923625  0.84242081  1  -0.627524  0  -0.082037  -0.112589  0  1.43741  0
