# generated using pymatgen
data_HgH6C3(NCl)2
_symmetry_space_group_name_H-M   'P 1'
_cell_length_a   6.62448574
_cell_length_b   6.62470932
_cell_length_c   16.02627457
_cell_angle_alpha   97.69195657
_cell_angle_beta   97.69102681
_cell_angle_gamma   110.67554877
_symmetry_Int_Tables_number   1
_chemical_formula_structural   HgH6C3(NCl)2
_chemical_formula_sum   'Hg4 H24 C12 N8 Cl8'
_cell_volume   639.54080764
_cell_formula_units_Z   4
loop_
 _symmetry_equiv_pos_site_id
 _symmetry_equiv_pos_as_xyz
  1  'x, y, z'
loop_
 _atom_site_type_symbol
 _atom_site_label
 _atom_site_symmetry_multiplicity
 _atom_site_fract_x
 _atom_site_fract_y
 _atom_site_fract_z
 _atom_site_occupancy
 _atom_site_hle17_bader_spin_density
 _atom_site_hle17_ddec_charge
 _atom_site_hle17_ddec_spin_density
 _atom_site_hle17_ddec_sum_bond_order
 _atom_site_hle17_magmom
 _atom_site_hse06_10hf_bader_spin_density
 _atom_site_hse06_10hf_ddec_charge
 _atom_site_hse06_10hf_ddec_spin_density
 _atom_site_hse06_10hf_ddec_sum_bond_order
 _atom_site_hse06_10hf_magmom
 _atom_site_hse06_bader_spin_density
 _atom_site_hse06_ddec_charge
 _atom_site_hse06_ddec_spin_density
 _atom_site_hse06_ddec_sum_bond_order
 _atom_site_hse06_magmom
 _atom_site_pbe_bader_spin_density
 _atom_site_pbe_cm5_charge
 _atom_site_pbe_ddec_charge
 _atom_site_pbe_ddec_spin_density
 _atom_site_pbe_ddec_sum_bond_order
 _atom_site_pbe_magmom
Hg  Hg0  1  0.70869952  0.45822799  0.91689103  1  0  0.757141  0  2.039372  0  0  0.60877  0  2.512492  0  0  0.660494  0  2.479247  0  0  0.496068  0.572981  0  2.534818  0
Hg  Hg1  1  0.04177305  0.79130515  0.58310568  1  0  0.757067  0  2.039346  0  0  0.608702  0  2.512453  0  0  0.660432  0  2.479212  0  0  0.496044  0.57291  0  2.534778  0
Hg  Hg2  1  0.29131462  0.54177871  0.08310963  1  0  0.757071  0  2.03939  0  0  0.608747  0  2.512446  0  0  0.660469  0  2.479211  0  0  0.49606  0.572958  0  2.534769  0
Hg  Hg3  1  0.95823168  0.20870485  0.41689528  1  0  0.757107  0  2.039317  0  0  0.608739  0  2.512395  0  0  0.660475  0  2.479151  0  0  0.496064  0.572955  0  2.534709  0
H  H4  1  0.01414028  0.14775125  0.79104935  1  0  0.075833  0  0.937617  0  0  0.087171  0  1.005437  0  0  0.087775  0  1.004796  0  0  0.10686  0.086694  0  1.006024  0
H  H5  1  0.85742947  0.22260370  0.70904065  1  0  0.077233  0  0.936794  0  0  0.088709  0  1.004442  0  0  0.089253  0  1.003863  0  0  0.107796  0.088269  0  1.004988  0
H  H6  1  0.35216470  0.48585072  0.70894282  1  0  0.076005  0  0.937479  0  0  0.087329  0  1.005276  0  0  0.087937  0  1.004633  0  0  0.106859  0.086846  0  1.005865  0
H  H7  1  0.27733253  0.64259303  0.79095682  1  0  0.077531  0  0.936456  0  0  0.088913  0  1.004185  0  0  0.089471  0  1.003613  0  0  0.107775  0.088468  0  1.004732  0
H  H8  1  0.72265981  0.35741217  0.20905258  1  0  0.077295  0  0.936848  0  0  0.088751  0  1.004503  0  0  0.089299  0  1.003924  0  0  0.107738  0.088308  0  1.005051  0
H  H9  1  0.64781957  0.51414945  0.29105838  1  0  0.075984  0  0.937423  0  0  0.08728  0  1.005287  0  0  0.087887  0  1.004644  0  0  0.106849  0.086798  0  1.005874  0
H  H10  1  0.14256840  0.77738819  0.29095771  1  0  0.077406  0  0.93674  0  0  0.088791  0  1.004374  0  0  0.089355  0  1.003809  0  0  0.107816  0.088353  0  1.004917  0
H  H11  1  0.98586231  0.85222906  0.20894428  1  0  0.07594  0  0.937601  0  0  0.087183  0  1.005424  0  0  0.087806  0  1.004796  0  0  0.106861  0.086707  0  1.006014  0
H  H12  1  0.34935321  0.02421512  0.79088027  1  0  0.068853  0  0.960699  0  0  0.079725  0  1.032056  0  0  0.080415  0  1.031292  0  0  0.10016  0.079121  0  1.032856  0
H  H13  1  0.73372860  0.55787761  0.70909578  1  0  0.068998  0  0.96094  0  0  0.079972  0  1.032233  0  0  0.080666  0  1.031435  0  0  0.100468  0.079379  0  1.033031  0
H  H14  1  0.47581684  0.15064415  0.70911083  1  0  0.0688  0  0.960776  0  0  0.079693  0  1.032091  0  0  0.080386  0  1.031321  0  0  0.100146  0.079102  0  1.032877  0
H  H15  1  0.94208082  0.76622863  0.79089790  1  0  0.069103  0  0.960863  0  0  0.080089  0  1.032111  0  0  0.080783  0  1.031311  0  0  0.100426  0.079475  0  1.032939  0
H  H16  1  0.05791736  0.23377633  0.20909433  1  0  0.068991  0  0.960879  0  0  0.079995  0  1.032154  0  0  0.080693  0  1.031347  0  0  0.100418  0.079367  0  1.032998  0
H  H17  1  0.52419489  0.84935605  0.29089497  1  0  0.068805  0  0.96072  0  0  0.079691  0  1.032003  0  0  0.080385  0  1.031232  0  0  0.100142  0.0791  0  1.032786  0
H  H18  1  0.26626886  0.44210927  0.29089730  1  0  0.068993  0  0.961032  0  0  0.079984  0  1.032309  0  0  0.080683  0  1.031499  0  0  0.100443  0.079369  0  1.033135  0
H  H19  1  0.65066139  0.97580479  0.20912487  1  0  0.068841  0  0.9607  0  0  0.079689  0  1.032052  0  0  0.080379  0  1.031288  0  0  0.100124  0.079091  0  1.032845  0
H  H20  1  0.55841415  0.92462207  0.90022951  1  0  0.08049  0  0.92969  0  0  0.088761  0  1.002716  0  0  0.089106  0  1.002454  0  0  0.105012  0.088453  0  1.003132  0
H  H21  1  0.52479331  0.65770830  0.59974582  1  0  0.079713  0  0.930106  0  0  0.088327  0  1.002667  0  0  0.088727  0  1.002352  0  0  0.104511  0.08798  0  1.003112  0
H  H22  1  0.57536830  0.94155499  0.59976769  1  0  0.08057  0  0.929544  0  0  0.088844  0  1.002572  0  0  0.089186  0  1.002311  0  0  0.105038  0.088534  0  1.002997  0
H  H23  1  0.84228148  0.97516642  0.90025542  1  0  0.079814  0  0.930007  0  0  0.088366  0  1.002639  0  0  0.088766  0  1.002328  0  0  0.104521  0.088018  0  1.003081  0
H  H24  1  0.15773100  0.02482382  0.09974365  1  0  0.079771  0  0.930117  0  0  0.088365  0  1.002689  0  0  0.088765  0  1.002381  0  0  0.104497  0.088017  0  1.003137  0
H  H25  1  0.42461841  0.05845171  0.40023087  1  0  0.080554  0  0.9296  0  0  0.088792  0  1.002679  0  0  0.089133  0  1.002413  0  0  0.10506  0.088481  0  1.003098  0
H  H26  1  0.47519479  0.34230182  0.40026236  1  0  0.079732  0  0.929978  0  0  0.088286  0  1.002599  0  0  0.088684  0  1.002285  0  0  0.104463  0.087934  0  1.003044  0
H  H27  1  0.44159112  0.07537316  0.09977380  1  0  0.080509  0  0.929663  0  0  0.088809  0  1.002636  0  0  0.089153  0  1.002376  0  0  0.105034  0.088501  0  1.003055  0
C  C28  1  0.85187686  0.10129644  0.75003545  1  0  0.083313  0  3.586005  0  0  0.01593  0  3.840796  0  0  0.024544  0  3.851422  0  0  0.014802  0.010053  0  3.833217  0
C  C29  1  0.39869511  0.64812557  0.74996964  1  0  0.082756  0  3.585649  0  0  0.015445  0  3.840233  0  0  0.024032  0  3.850865  0  0  0.014775  0.009584  0  3.832636  0
C  C30  1  0.60131722  0.35187625  0.25003503  1  0  0.08309  0  3.585473  0  0  0.015765  0  3.840206  0  0  0.024372  0  3.850831  0  0  0.014845  0.009905  0  3.832606  0
C  C31  1  0.14812860  0.89869543  0.24996208  1  0  0.082788  0  3.586447  0  0  0.015832  0  3.840834  0  0  0.02432  0  3.851578  0  0  0.014817  0.009952  0  3.833286  0
C  C32  1  0.47063618  0.02932486  0.74998211  1  0  0.05441  0  3.65207  0  0  -0.016396  0  3.909727  0  0  -0.008153  0  3.92054  0  0  -0.000571  -0.021984  0  3.901975  0
C  C33  1  0.77982325  0.72008562  0.75001256  1  0  0.055536  0  3.653974  0  0  -0.014967  0  3.912187  0  0  -0.006745  0  3.923117  0  0  7.2e-05  -0.020551  0  3.904427  0
C  C34  1  0.22016041  0.27989658  0.24999700  1  0  0.055792  0  3.654059  0  0  -0.014634  0  3.912264  0  0  -0.006404  0  3.923191  0  0  0.000118  -0.020184  0  3.904483  0
C  C35  1  0.52934969  0.97065548  0.25001249  1  0  0.05419  0  3.652301  0  0  -0.016504  0  3.909958  0  0  -0.008276  0  3.920743  0  0  -0.00059  -0.022098  0  3.902234  0
C  C36  1  0.67993883  0.92941393  0.85942521  1  0  0.065513  0  3.6143  0  0  -0.004808  0  3.87591  0  0  0.003434  0  3.887211  0  0  0.004712  -0.010399  0  3.867661  0
C  C37  1  0.57059587  0.82004838  0.64056226  1  0  0.065707  0  3.614174  0  0  -0.004621  0  3.875887  0  0  0.003628  0  3.887205  0  0  0.004728  -0.010214  0  3.867638  0
C  C38  1  0.32006498  0.07059769  0.14057391  1  0  0.065539  0  3.614381  0  0  -0.004704  0  3.876133  0  0  0.003513  0  3.887435  0  0  0.004758  -0.010261  0  3.86782  0
C  C39  1  0.42939190  0.17993693  0.35943521  1  0  0.065605  0  3.614156  0  0  -0.004613  0  3.87577  0  0  0.00364  0  3.887077  0  0  0.004723  -0.01023  0  3.867595  0
N  N40  1  0.68878855  0.09599398  0.80555149  1  0  -0.268984  0  3.16941  0  0  -0.182168  0  3.412965  0  0  -0.20277  0  3.433934  0  0  -0.333447  -0.167256  0  3.397573  0
N  N41  1  0.79094797  0.88273287  0.69448990  1  0  -0.268822  0  3.174328  0  0  -0.183249  0  3.419413  0  0  -0.203877  0  3.440434  0  0  -0.334004  -0.16835  0  3.404064  0
N  N42  1  0.40397479  0.81119664  0.69442844  1  0  -0.269042  0  3.169306  0  0  -0.182177  0  3.412786  0  0  -0.202784  0  3.433774  0  0  -0.333351  -0.167262  0  3.397378  0
N  N43  1  0.61728225  0.70905280  0.80550724  1  0  -0.268575  0  3.175565  0  0  -0.182854  0  3.420415  0  0  -0.203453  0  3.441402  0  0  -0.333967  -0.167966  0  3.405058  0
N  N44  1  0.38272149  0.29095875  0.19448751  1  0  -0.268687  0  3.17501  0  0  -0.183196  0  3.420161  0  0  -0.203817  0  3.441183  0  0  -0.334016  -0.168303  0  3.404803  0
N  N45  1  0.59602455  0.18878703  0.30557019  1  0  -0.269046  0  3.169038  0  0  -0.18217  0  3.412439  0  0  -0.202779  0  3.433419  0  0  -0.333385  -0.167255  0  3.397015  0
N  N46  1  0.20905325  0.11726391  0.30550579  1  0  -0.268723  0  3.174943  0  0  -0.18328  0  3.419943  0  0  -0.20388  0  3.440988  0  0  -0.334013  -0.168377  0  3.404579  0
N  N47  1  0.31121310  0.90401599  0.19444681  1  0  -0.268577  0  3.16949  0  0  -0.182048  0  3.413086  0  0  -0.202553  0  3.434025  0  0  -0.333388  -0.167164  0  3.397722  0
Cl  Cl48  1  0.33845076  0.24356341  0.92894941  1  0  -0.437088  0  1.119626  0  0  -0.375709  0  1.42408  0  0  -0.395107  0  1.405632  0  0  -0.236508  -0.362834  0  1.437101  0
Cl  Cl49  1  0.81452742  0.40898777  0.57096171  1  0  -0.437389  0  1.120948  0  0  -0.37604  0  1.425619  0  0  -0.39551  0  1.407264  0  0  -0.236214  -0.363104  0  1.438569  0
Cl  Cl50  1  0.25642961  0.16154863  0.57104884  1  0  -0.437085  0  1.119629  0  0  -0.375722  0  1.424108  0  0  -0.395128  0  1.405672  0  0  -0.236516  -0.36285  0  1.437138  0
Cl  Cl51  1  0.09100769  0.68548562  0.92904132  1  0  -0.437393  0  1.121041  0  0  -0.376032  0  1.425736  0  0  -0.395504  0  1.407381  0  0  -0.236195  -0.363099  0  1.438686  0
Cl  Cl52  1  0.90899649  0.31453098  0.07096058  1  0  -0.437396  0  1.12099  0  0  -0.376061  0  1.425655  0  0  -0.395534  0  1.407302  0  0  -0.236216  -0.363127  0  1.438605  0
Cl  Cl53  1  0.74357481  0.83845646  0.42895371  1  0  -0.437082  0  1.119587  0  0  -0.375727  0  1.424071  0  0  -0.39513  0  1.405631  0  0  -0.236515  -0.362849  0  1.437091  0
Cl  Cl54  1  0.18547174  0.59101561  0.42903547  1  0  -0.437417  0  1.12093  0  0  -0.376061  0  1.425584  0  0  -0.395536  0  1.407235  0  0  -0.236222  -0.363121  0  1.438525  0
Cl  Cl55  1  0.66155364  0.75644983  0.07104796  1  0  -0.437082  0  1.119668  0  0  -0.375705  0  1.42413  0  0  -0.395107  0  1.405692  0  0  -0.236482  -0.362832  0  1.437159  0
