# generated using pymatgen
data_CuH5C8N7O2
_symmetry_space_group_name_H-M   'P 1'
_cell_length_a   6.78216856
_cell_length_b   7.95283569
_cell_length_c   11.16391353
_cell_angle_alpha   97.21535226
_cell_angle_beta   105.69616072
_cell_angle_gamma   112.26151430
_symmetry_Int_Tables_number   1
_chemical_formula_structural   CuH5C8N7O2
_chemical_formula_sum   'Cu2 H10 C16 N14 O4'
_cell_volume   518.61257344
_cell_formula_units_Z   2
loop_
 _symmetry_equiv_pos_site_id
 _symmetry_equiv_pos_as_xyz
  1  'x, y, z'
loop_
 _atom_site_type_symbol
 _atom_site_label
 _atom_site_symmetry_multiplicity
 _atom_site_fract_x
 _atom_site_fract_y
 _atom_site_fract_z
 _atom_site_occupancy
 _atom_site_hle17_ddec_charge
 _atom_site_hle17_ddec_spin_density
 _atom_site_hle17_ddec_sum_bond_order
 _atom_site_hle17_magmom
 _atom_site_hse06_10hf_ddec_charge
 _atom_site_hse06_10hf_ddec_spin_density
 _atom_site_hse06_10hf_ddec_sum_bond_order
 _atom_site_hse06_10hf_magmom
 _atom_site_hse06_ddec_charge
 _atom_site_hse06_ddec_spin_density
 _atom_site_hse06_ddec_sum_bond_order
 _atom_site_hse06_magmom
 _atom_site_pbe_cm5_charge
 _atom_site_pbe_ddec_charge
 _atom_site_pbe_ddec_spin_density
 _atom_site_pbe_ddec_sum_bond_order
 _atom_site_pbe_magmom
Cu  Cu0  1  0.49999333  0.49999790  0.99999732  1  0.872798  -0.610964  1.911567  -0.442  0.885481  -0.74598  2.317244  -0.6  0.987115  -0.845324  2.232849  -0.707  0.75657  0.82722  -0.665128  2.371644  -0.521
Cu  Cu1  1  0.00000138  0.50000203  0.00000230  1  0.900401  0.617253  1.884913  0.447  0.909417  0.743097  2.288787  0.595  1.007608  0.838034  2.206027  0.696  0.758178  0.85297  0.664748  2.342025  0.52
H  H2  1  0.78732011  0.60276797  0.37780382  1  0.104436  -8.8e-05  0.94305  0.0  0.11345  -9.4e-05  1.004117  0.0  0.116916  -5.4e-05  1.001737  0.0  0.106759  0.11085  -0.000118  1.006117  0.0
H  H3  1  0.21268024  0.39722591  0.62219361  1  0.104455  -8.7e-05  0.942984  0.0  0.113458  -9.4e-05  1.004073  0.0  0.116919  -5.4e-05  1.001697  0.0  0.106804  0.110861  -0.000118  1.006073  0.0
H  H4  1  0.00991094  0.79044498  0.60767039  1  0.115472  0.000401  0.971039  0.0  0.121663  0.000329  1.039119  0.0  0.125029  0.00024  1.036939  0.0  0.108741  0.11921  0.00039  1.040863  0.0
H  H5  1  0.99008586  0.20953626  0.39232172  1  0.115487  0.000399  0.971019  0.0  0.121653  0.000329  1.039118  0.0  0.125018  0.000239  1.036939  0.0  0.108758  0.1192  0.00039  1.040862  0.0
H  H6  1  0.44130251  0.90118347  0.62379034  1  0.110747  -0.00013  0.958725  0.0  0.121421  -0.000112  1.019377  0.0  0.12392  -7.3e-05  1.018551  0.0  0.111145  0.119475  -0.000148  1.020266  0.0
H  H7  1  0.55870988  0.09881878  0.37621257  1  0.110711  -0.000132  0.958672  0.0  0.121373  -0.000111  1.019369  0.0  0.12387  -7.3e-05  1.018545  0.0  0.111129  0.119429  -0.000148  1.020254  0.0
H  H8  1  0.22092454  0.70935493  0.39733495  1  0.106373  0.000254  0.937168  0.0  0.117794  0.000192  0.992292  0.0  0.121061  0.000121  0.990396  0.0  0.107441  0.115412  0.000238  0.993787  0.0
H  H9  1  0.77908325  0.29064733  0.60266809  1  0.106321  0.000256  0.937089  0.0  0.117785  0.000192  0.992168  0.0  0.121053  0.000121  0.99027  0.0  0.107434  0.115403  0.000238  0.993664  0.0
H  H10  1  0.63043777  0.99050011  0.84204050  1  0.11884  0.000529  0.943194  0.0  0.127866  0.000305  1.004822  0.0  0.13088  0.000237  1.000242  0.0  0.147577  0.125431  0.00035  1.007787  0.0
H  H11  1  0.36956481  0.00949798  0.15795769  1  0.11881  0.00053  0.943187  0.0  0.127867  0.000304  1.004785  0.0  0.130883  0.000236  1.000202  0.0  0.147579  0.125429  0.00035  1.007758  0.0
C  C12  1  0.49340575  0.64922870  0.37332996  1  -0.066289  0.002541  3.738148  0.003  -0.045712  0.001465  3.967609  0.002  -0.055601  0.001384  3.990868  0.002  -0.014967  -0.039216  0.001545  3.951989  0.002
C  C13  1  0.50658976  0.35077076  0.62667611  1  -0.066425  0.002588  3.738131  0.003  -0.045844  0.001466  3.967628  0.002  -0.055737  0.001385  3.99088  0.002  -0.014987  -0.03935  0.001546  3.95201  0.002
C  C14  1  0.71434860  0.66938362  0.43290753  1  -0.038883  -0.001036  3.72304  -0.001  -0.063594  -0.000296  3.973517  0.0  -0.062405  -0.000401  3.994187  0.0  -0.075999  -0.064534  0.000221  3.960092  0.001
C  C15  1  0.28565246  0.33061165  0.56709194  1  -0.038812  -0.001085  3.722937  -0.001  -0.063531  -0.000297  3.973413  0.0  -0.062333  -0.000403  3.994072  0.0  -0.076048  -0.064475  0.000221  3.95999  0.001
C  C16  1  0.83882428  0.77441261  0.55966415  1  -0.141626  0.00179  3.71775  0.002  -0.164753  0.000842  3.977737  0.001  -0.169938  0.000759  3.996137  0.001  -0.084899  -0.161226  0.000881  3.963436  0.001
C  C17  1  0.16117305  0.22557562  0.44033495  1  -0.141704  0.001841  3.717724  0.002  -0.164759  0.00084  3.977699  0.001  -0.169945  0.000759  3.996105  0.001  -0.08489  -0.161232  0.000881  3.963399  0.001
C  C18  1  0.74021685  0.86049742  0.62626272  1  0.179338  -0.002338  3.756935  -0.002  0.157189  -0.001204  4.007397  -0.001  0.173294  -0.001006  4.030014  -0.001  0.103347  0.153631  -0.00074  3.992355  -0.001
C  C19  1  0.25978354  0.13949647  0.37373293  1  0.179216  -0.00239  3.756927  -0.002  0.15702  -0.001202  4.007499  -0.001  0.173093  -0.001005  4.030117  -0.001  0.103234  0.153462  -0.00074  3.992456  -0.001
C  C20  1  0.51616733  0.83424697  0.57061527  1  -0.148037  6.7e-05  3.746933  0.0  -0.170732  -0.000146  4.006594  0.0  -0.175843  0.000128  4.025476  0.0  -0.085988  -0.167047  -0.000399  3.991707  0.0
C  C21  1  0.48384044  0.16576097  0.42938468  1  -0.147981  0.000123  3.746686  0.0  -0.170655  -0.000148  4.006361  0.0  -0.175769  0.000127  4.025253  0.0  -0.08595  -0.16697  -0.000398  3.991473  0.0
C  C22  1  0.39348704  0.72759358  0.44430298  1  -0.047439  -0.001563  3.731417  -0.002  -0.068371  -0.000795  3.976306  -0.001  -0.067003  -0.000741  3.996401  -0.001  -0.079416  -0.069157  -0.001164  3.962784  -0.001
C  C23  1  0.60651604  0.27241149  0.55570398  1  -0.04738  -0.001619  3.731132  -0.002  -0.068339  -0.000796  3.976015  -0.001  -0.066966  -0.000741  3.996106  -0.001  -0.079401  -0.069127  -0.001164  3.962497  -0.001
C  C24  1  0.37161121  0.55773761  0.23222152  1  0.66172  -0.001809  3.845098  -0.002  0.623927  -0.002142  4.137118  -0.003  0.665931  -0.001973  4.129944  -0.003  0.22092  0.595648  -0.002338  4.141126  -0.003
C  C25  1  0.62837900  0.44226048  0.76778174  1  0.661785  -0.001815  3.845226  -0.002  0.624  -0.002142  4.137228  -0.003  0.66601  -0.001972  4.130048  -0.003  0.220918  0.595723  -0.002338  4.141236  -0.003
C  C26  1  0.80528194  0.04276679  0.84557071  1  0.18067  -0.000641  3.598669  0.0  0.11021  -0.00045  3.870422  0.0  0.135256  -0.000411  3.880633  0.0  0.176593  0.101162  -0.000505  3.865677  0.0
C  C27  1  0.19472214  0.95723413  0.15442710  1  0.180605  -0.000627  3.598725  0.0  0.110144  -0.00045  3.870512  0.0  0.135157  -0.000413  3.880714  0.0  0.176535  0.101096  -0.000505  3.865768  0.0
N  N28  1  0.87219279  0.98353868  0.75117129  1  -0.002798  0.000199  3.538026  0.0  0.112833  9.5e-05  3.718929  0.0  0.070754  0.000115  3.776293  0.0  -0.101081  0.119264  6.4e-05  3.70641  0.0
N  N29  1  0.12780906  0.01645518  0.24882819  1  -0.002593  0.000201  3.537884  0.0  0.112952  9.4e-05  3.718918  0.0  0.070973  0.000113  3.776179  0.0  -0.101015  0.119385  6.4e-05  3.706399  0.0
N  N30  1  0.10264148  0.07841449  0.78911965  1  -0.071316  -0.000282  2.828769  0.0  -0.083212  -0.000141  3.108482  0.0  -0.068474  -3.5e-05  3.122586  0.0  -0.061331  -0.085671  -9e-05  3.102775  0.0
N  N31  1  0.89736178  0.92158782  0.21087993  1  -0.071393  -0.000293  2.828802  0.0  -0.083251  -0.00014  3.108525  0.0  -0.068547  -3.5e-05  3.122613  0.0  -0.061338  -0.085711  -8.9e-05  3.10282  0.0
N  N32  1  0.16715893  0.18813713  0.90219820  1  -0.075774  0.000962  3.061926  0.0  -0.072387  0.000585  3.402082  0.0  -0.077019  0.000625  3.408503  0.0  -0.079739  -0.070021  0.0006  3.397252  0.0
N  N33  1  0.83284426  0.81187650  0.09779702  1  -0.075681  0.000969  3.061882  0.0  -0.07228  0.000585  3.401995  0.0  -0.076911  0.000625  3.408427  0.0  -0.079655  -0.069915  0.000599  3.397165  0.0
N  N34  1  0.98714899  0.17060001  0.94049828  1  -0.269915  -0.001345  3.008775  0.0  -0.257873  -0.001084  3.333771  0.0  -0.271186  -0.000938  3.34137  0.0  -0.225522  -0.249788  -0.001153  3.327576  0.0
N  N35  1  0.01285500  0.82941505  0.05949452  1  -0.269948  -0.001364  3.008894  0.0  -0.257907  -0.001084  3.333885  0.0  -0.271221  -0.000935  3.341497  0.0  -0.225531  -0.249823  -0.001153  3.327691  0.0
N  N36  1  0.28490522  0.61832635  0.96104255  1  -0.54175  -0.003432  2.924977  -0.004  -0.597731  -0.00061  3.32678  -0.001  -0.657851  0.000251  3.3425  0.0  -0.36338  -0.563362  -0.000704  3.320144  -0.001
N  N37  1  0.71509119  0.38167458  0.03895575  1  -0.541852  -0.003421  2.924385  -0.004  -0.597824  -0.000606  3.326172  -0.001  -0.657952  0.000253  3.341872  0.001  -0.363409  -0.563452  -0.0007  3.319559  -0.001
N  N38  1  0.27775642  0.69139820  0.87193043  1  0.422113  0.004091  4.10797  0.006  0.468704  0.001675  4.419508  0.003  0.491699  0.0013  4.453579  0.002  0.099674  0.453989  0.001677  4.397413  0.003
N  N39  1  0.72223532  0.30859136  0.12807948  1  0.422148  0.004066  4.10814  0.006  0.46873  0.001673  4.419661  0.003  0.491727  0.001298  4.453728  0.002  0.099746  0.454012  0.001676  4.397563  0.003
N  N40  1  0.27489980  0.76406011  0.78817700  1  -0.284281  -0.009265  2.389251  -0.011  -0.30664  -0.002406  2.62925  -0.003  -0.315981  -0.001284  2.638319  -0.002  -0.13127  -0.300815  -0.003721  2.623405  -0.004
N  N41  1  0.72508750  0.23594089  0.21181707  1  -0.284125  -0.009189  2.389969  -0.011  -0.306478  -0.002397  2.629956  -0.003  -0.315812  -0.001278  2.639018  -0.002  -0.131218  -0.30066  -0.003712  2.624119  -0.004
O  O42  1  0.47088738  0.48951235  0.17281306  1  -0.599525  -0.058452  2.129018  -0.076  -0.572816  -0.041514  2.411818  -0.06  -0.617081  -0.032096  2.404621  -0.049  -0.317675  -0.544151  -0.047165  2.416803  -0.065
O  O43  1  0.52910966  0.51049278  0.82718930  1  -0.5995  -0.058457  2.129151  -0.076  -0.5728  -0.041517  2.411999  -0.06  -0.61707  -0.032098  2.404801  -0.049  -0.317673  -0.544136  -0.047169  2.416985  -0.065
O  O44  1  0.17974106  0.56090137  0.18366953  1  -0.598733  0.066382  2.121727  0.088  -0.568732  0.046948  2.398542  0.069  -0.61377  0.037498  2.392436  0.058  -0.318374  -0.539219  0.052465  2.402535  0.074
O  O45  1  0.82024834  0.43909812  0.81633551  1  -0.598688  0.066382  2.121707  0.088  -0.568717  0.046946  2.398562  0.069  -0.613753  0.037496  2.392447  0.058  -0.318326  -0.539204  0.052463  2.402554  0.074
