# generated using pymatgen
data_CdH20C26Br2(NO2)2
_symmetry_space_group_name_H-M   'P 1'
_cell_length_a   8.71452359
_cell_length_b   10.37493519
_cell_length_c   14.75652129
_cell_angle_alpha   80.01388348
_cell_angle_beta   73.62747730
_cell_angle_gamma   65.21746994
_symmetry_Int_Tables_number   1
_chemical_formula_structural   CdH20C26Br2(NO2)2
_chemical_formula_sum   'Cd2 H40 C52 Br4 N4 O8'
_cell_volume   1159.84573639
_cell_formula_units_Z   2
loop_
 _symmetry_equiv_pos_site_id
 _symmetry_equiv_pos_as_xyz
  1  'x, y, z'
loop_
 _atom_site_type_symbol
 _atom_site_label
 _atom_site_symmetry_multiplicity
 _atom_site_fract_x
 _atom_site_fract_y
 _atom_site_fract_z
 _atom_site_occupancy
 _atom_site_hle17_bader_spin_density
 _atom_site_hle17_ddec_charge
 _atom_site_hle17_ddec_spin_density
 _atom_site_hle17_ddec_sum_bond_order
 _atom_site_hle17_magmom
 _atom_site_hse06_10hf_bader_spin_density
 _atom_site_hse06_10hf_ddec_charge
 _atom_site_hse06_10hf_ddec_spin_density
 _atom_site_hse06_10hf_ddec_sum_bond_order
 _atom_site_hse06_10hf_magmom
 _atom_site_hse06_bader_spin_density
 _atom_site_hse06_ddec_charge
 _atom_site_hse06_ddec_spin_density
 _atom_site_hse06_ddec_sum_bond_order
 _atom_site_hse06_magmom
 _atom_site_pbe_bader_charge
 _atom_site_pbe_bader_spin_density
 _atom_site_pbe_cm5_charge
 _atom_site_pbe_ddec_charge
 _atom_site_pbe_ddec_spin_density
 _atom_site_pbe_ddec_sum_bond_order
 _atom_site_pbe_magmom
Cd  Cd0  1  0.63967148  0.25041137  0.74787372  1  0  0.988187  0  1.854113  0  0  0.826557  0  2.327088  0  0  0.884125  0  2.273058  0  1.108724  0  0.583267  0.786005  0  2.363379  0
Cd  Cd1  1  0.36031928  0.74959163  0.25212805  1  0  0.988131  0  1.854194  0  0  0.826509  0  2.327121  0  0  0.884047  0  2.27315  0  1.108721  0  0.583232  0.785955  0  2.36341  0
H  H2  1  0.07700557  0.10138087  0.94368140  1  0  0.126699  0  0.935033  0  0  0.13344  0  0.996713  0  0  0.137499  0  0.994788  0  0.159713  0  0.116938  0.130479  0  0.99832  0
H  H3  1  0.12015710  0.40042373  0.55865597  1  0  0.125888  0  0.937546  0  0  0.131763  0  1.000785  0  0  0.135796  0  0.998841  0  0.132525  0  0.11548  0.128854  0  1.002354  0
H  H4  1  0.92299056  0.89862213  0.05631499  1  0  0.126729  0  0.93501  0  0  0.133443  0  0.996694  0  0  0.137501  0  0.994772  0  0.159682  0  0.116936  0.130482  0  0.998302  0
H  H5  1  0.87982942  0.59958671  0.44134616  1  0  0.125934  0  0.937587  0  0  0.131803  0  1.000821  0  0  0.135836  0  0.998875  0  0.132657  0  0.115491  0.128898  0  1.00238  0
H  H6  1  0.58051400  0.43439748  0.05149623  1  0  0.140403  0  0.95497  0  0  0.144034  0  1.021533  0  0  0.148952  0  1.018213  0  0.155079  0  0.118138  0.140479  0  1.024144  0
H  H7  1  0.06733016  0.06586358  0.44752197  1  0  0.141307  0  0.954929  0  0  0.145623  0  1.020289  0  0  0.150515  0  1.017073  0  0.179403  0  0.118735  0.142358  0  1.022214  0
H  H8  1  0.41948192  0.56560019  0.94850798  1  0  0.140452  0  0.954927  0  0  0.144061  0  1.021521  0  0  0.148977  0  1.018203  0  0.155065  0  0.11815  0.140511  0  1.024111  0
H  H9  1  0.93266554  0.93413729  0.55248320  1  0  0.141349  0  0.954915  0  0  0.14564  0  1.020304  0  0  0.150533  0  1.017079  0  0.179394  0  0.118737  0.142375  0  1.022228  0
H  H10  1  0.13586249  0.06393602  0.10631741  1  0  0.11524  0  0.949084  0  0  0.118227  0  1.018532  0  0  0.121861  0  1.014724  0  0.189255  0  0.127147  0.115364  0  1.021667  0
H  H11  1  0.30588421  0.43498043  0.39858821  1  0  0.116501  0  0.946724  0  0  0.119449  0  1.015861  0  0  0.123115  0  1.011934  0  0.178625  0  0.128466  0.116844  0  1.018432  0
H  H12  1  0.86414410  0.93606804  0.89367642  1  0  0.115168  0  0.949074  0  0  0.118209  0  1.018497  0  0  0.121854  0  1.014659  0  0.189257  0  0.127145  0.115347  0  1.021633  0
H  H13  1  0.69410754  0.56502256  0.60141378  1  0  0.116457  0  0.946713  0  0  0.1194  0  1.015873  0  0  0.123065  0  1.011946  0  0.178595  0  0.128445  0.116798  0  1.018441  0
H  H14  1  0.66418303  0.39022639  0.20732482  1  0  0.096712  0  0.982137  0  0  0.101903  0  1.052806  0  0  0.105466  0  1.049176  0  0.182208  0  0.114741  0.099217  0  1.055399  0
H  H15  1  0.26333846  0.10821242  0.29404850  1  0  0.096411  0  0.982692  0  0  0.100678  0  1.054444  0  0  0.104269  0  1.050874  0  0.169242  0  0.113971  0.097941  0  1.057114  0
H  H16  1  0.33582222  0.60976916  0.79267720  1  0  0.096664  0  0.982129  0  0  0.101884  0  1.052779  0  0  0.105454  0  1.049147  0  0.182522  0  0.114725  0.099194  0  1.055378  0
H  H17  1  0.73666062  0.89178419  0.70595551  1  0  0.096433  0  0.982759  0  0  0.100685  0  1.054502  0  0  0.104272  0  1.050937  0  0.169178  0  0.113976  0.097949  0  1.05717  0
H  H18  1  0.91540371  0.28101402  0.28329560  1  0  0.090082  0  0.944579  0  0  0.09921  0  1.017728  0  0  0.100035  0  1.017794  0  0.093828  0  0.109216  0.098499  0  1.017854  0
H  H19  1  0.47999361  0.21540894  0.22183290  1  0  0.09063  0  0.946088  0  0  0.09991  0  1.019  0  0  0.100766  0  1.01911  0  0.100339  0  0.109284  0.099206  0  1.019072  0
H  H20  1  0.08460904  0.71898047  0.71670308  1  0  0.090059  0  0.94464  0  0  0.099154  0  1.017768  0  0  0.099982  0  1.017831  0  0.093688  0  0.109181  0.098447  0  1.017898  0
H  H21  1  0.52000428  0.78458874  0.77817174  1  0  0.090729  0  0.946067  0  0  0.099949  0  1.019015  0  0  0.100804  0  1.019128  0  0.100323  0  0.109321  0.099252  0  1.019083  0
H  H22  1  0.05051564  0.10073090  0.25414047  1  0  0.098218  0  0.932231  0  0  0.111607  0  0.998256  0  0  0.11283  0  0.997024  0  0.117712  0  0.118592  0.110685  0  0.99919  0
H  H23  1  0.40824330  0.39543250  0.25126196  1  0  0.097314  0  0.934471  0  0  0.110681  0  1.000685  0  0  0.11189  0  0.999441  0  0.088027  0  0.118307  0.109839  0  1.001429  0
H  H24  1  0.94949581  0.89926571  0.74585478  1  0  0.098206  0  0.932292  0  0  0.111581  0  0.998284  0  0  0.1128  0  0.997057  0  0.117826  0  0.118617  0.110661  0  0.999217  0
H  H25  1  0.59175725  0.60456518  0.74874244  1  0  0.097344  0  0.934474  0  0  0.110702  0  1.000681  0  0  0.111909  0  0.999438  0  0.087912  0  0.118296  0.109859  0  1.001427  0
H  H26  1  0.72753794  0.28106827  0.43188058  1  0  0.097664  0  0.963037  0  0  0.107911  0  1.024638  0  0  0.110748  0  1.023335  0  0.095016  0  0.091192  0.105826  0  1.025627  0
H  H27  1  0.44089369  0.21876940  0.07043619  1  0  0.09763  0  0.961284  0  0  0.108304  0  1.022148  0  0  0.111164  0  1.020848  0  0.079012  0  0.09153  0.106178  0  1.023301  0
H  H28  1  0.27247018  0.71892621  0.56811790  1  0  0.097661  0  0.962994  0  0  0.107918  0  1.024584  0  0  0.110755  0  1.023282  0  0.094982  0  0.091179  0.105833  0  1.025573  0
H  H29  1  0.55910638  0.78122721  0.92956803  1  0  0.097605  0  0.961315  0  0  0.108277  0  1.022191  0  0  0.111113  0  1.020919  0  0.07892  0  0.091528  0.106149  0  1.023347  0
H  H30  1  0.81152502  0.97767012  0.23819250  1  0  0.1058  0  0.946818  0  0  0.115736  0  1.009196  0  0  0.11949  0  1.00651  0  0.103375  0  0.099292  0.112969  0  1.011259  0
H  H31  1  0.03135211  0.51890689  0.26406295  1  0  0.105376  0  0.949258  0  0  0.11487  0  1.012461  0  0  0.118572  0  1.009817  0  0.114367  0  0.099176  0.112118  0  1.014567  0
H  H32  1  0.18848259  0.02233394  0.76179909  1  0  0.105706  0  0.946894  0  0  0.115695  0  1.009212  0  0  0.119451  0  1.006526  0  0.103206  0  0.099283  0.112921  0  1.011283  0
H  H33  1  0.96864842  0.48109504  0.73593925  1  0  0.105407  0  0.949216  0  0  0.11484  0  1.012479  0  0  0.118547  0  1.009829  0  0.11449  0  0.099173  0.112089  0  1.014585  0
H  H34  1  0.53598010  0.18914330  0.55011728  1  0  0.089142  0  0.989423  0  0  0.097712  0  1.05759  0  0  0.100385  0  1.056274  0  0.104761  0  0.089322  0.095713  0  1.058607  0
H  H35  1  0.27424652  0.31209750  0.95035013  1  0  0.091354  0  0.985038  0  0  0.099955  0  1.052507  0  0  0.102737  0  1.051065  0  0.091888  0  0.090672  0.097887  0  1.053706  0
H  H36  1  0.46402812  0.81084694  0.44987850  1  0  0.089216  0  0.989184  0  0  0.097756  0  1.057414  0  0  0.100432  0  1.056094  0  0.104972  0  0.08932  0.095754  0  1.058434  0
H  H37  1  0.72575585  0.68790124  0.04965309  1  0  0.091344  0  0.985007  0  0  0.099913  0  1.052534  0  0  0.102694  0  1.051092  0  0.091795  0  0.090641  0.097843  0  1.053731  0
H  H38  1  0.60984825  0.89122465  0.35301023  1  0  0.090794  0  0.978469  0  0  0.098587  0  1.046919  0  0  0.101499  0  1.045426  0  0.083829  0  0.09321  0.097166  0  1.046727  0
H  H39  1  0.85657321  0.60657252  0.14735662  1  0  0.091466  0  0.976562  0  0  0.100269  0  1.042931  0  0  0.103188  0  1.041387  0  0.076624  0  0.094121  0.098117  0  1.044105  0
H  H40  1  0.39015879  0.10877516  0.64697933  1  0  0.090866  0  0.978443  0  0  0.098645  0  1.046901  0  0  0.101564  0  1.045402  0  0.084372  0  0.093224  0.097222  0  1.046707  0
H  H41  1  0.14342751  0.39342835  0.85264474  1  0  0.091483  0  0.976573  0  0  0.100284  0  1.042942  0  0  0.103202  0  1.041399  0  0.076623  0  0.094144  0.098131  0  1.044118  0
C  C42  1  0.76710712  0.26517868  0.89697310  1  0  0.620881  0  3.930468  0  0  0.574958  0  4.216781  0  0  0.608285  0  4.211417  0  1.60649  0  0.195513  0.552617  0  4.219017  0
C  C43  1  0.92838683  0.23715568  0.60140227  1  0  0.619259  0  3.931377  0  0  0.573568  0  4.217652  0  0  0.606845  0  4.212351  0  1.594164  0  0.194372  0.55105  0  4.220715  0
C  C44  1  0.23288999  0.73482006  0.10302815  1  0  0.620932  0  3.930357  0  0  0.575002  0  4.216694  0  0  0.60833  0  4.211322  0  1.606413  0  0.195463  0.552661  0  4.218933  0
C  C45  1  0.07160574  0.76284626  0.39860065  1  0  0.619184  0  3.931335  0  0  0.573487  0  4.217588  0  0  0.606767  0  4.212285  0  1.594659  0  0.194303  0.55097  0  4.220649  0
C  C46  1  0.81875986  0.26218841  0.98702585  1  0  0.029254  0  3.666842  0  0  0.044527  0  3.898277  0  0  0.04602  0  3.914918  0  0.009282  0  0.024764  0.043591  0  3.887224  0
C  C47  1  0.06736370  0.23898218  0.51323902  1  0  0.030286  0  3.66205  0  0  0.044587  0  3.894604  0  0  0.046068  0  3.911228  0  -0.026019  0  0.024677  0.043474  0  3.884016  0
C  C48  1  0.18123572  0.73781352  0.01297527  1  0  0.029332  0  3.666763  0  0  0.04455  0  3.898224  0  0  0.046052  0  3.914849  0  0.009432  0  0.024811  0.043607  0  3.887181  0
C  C49  1  0.93262485  0.76102188  0.48676561  1  0  0.030267  0  3.662108  0  0  0.044603  0  3.894561  0  0  0.04608  0  3.911192  0  -0.026184  0  0.024711  0.043491  0  3.883969  0
C  C50  1  0.98040754  0.16411482  0.00116748  1  0  -0.104458  0  3.682233  0  0  -0.128085  0  3.937543  0  0  -0.134498  0  3.955854  0  -0.017379  0  -0.062736  -0.124235  0  3.925928  0
C  C51  1  0.14455613  0.33677919  0.50094725  1  0  -0.102869  0  3.680639  0  0  -0.125776  0  3.936102  0  0  -0.132156  0  3.954409  0  0.072687  0  -0.062427  -0.122099  0  3.924338  0
C  C52  1  0.01959255  0.83588818  0.99882978  1  0  -0.104576  0  3.682266  0  0  -0.128108  0  3.937554  0  0  -0.134524  0  3.955864  0  -0.017251  0  -0.062728  -0.124258  0  3.925945  0
C  C53  1  0.85543112  0.66322700  0.49905396  1  0  -0.102956  0  3.680641  0  0  -0.125854  0  3.936052  0  0  -0.132226  0  3.954349  0  0.072457  0  -0.062442  -0.122177  0  3.924297  0
C  C54  1  0.70327273  0.34947001  0.06027371  1  0  -0.100262  0  3.664402  0  0  -0.12336  0  3.916984  0  0  -0.129125  0  3.93528  0  0.058753  0  -0.061907  -0.119868  0  3.905035  0
C  C55  1  0.11358771  0.15065701  0.43985693  1  0  -0.102131  0  3.665014  0  0  -0.125293  0  3.917231  0  0  -0.131109  0  3.93557  0  0.071847  0  -0.063032  -0.121772  0  3.904943  0
C  C56  1  0.29672734  0.65052873  0.93972819  1  0  -0.100362  0  3.664257  0  0  -0.123424  0  3.916852  0  0  -0.129192  0  3.935149  0  0.058558  0  -0.061951  -0.119936  0  3.904917  0
C  C57  1  0.88640819  0.84934492  0.56014508  1  0  -0.102025  0  3.664954  0  0  -0.125184  0  3.917129  0  0  -0.130999  0  3.935475  0  0.071333  0  -0.062987  -0.121663  0  3.904835  0
C  C58  1  0.01585857  0.14313294  0.08959484  1  0  0.112166  0  3.568309  0  0  0.069566  0  3.822269  0  0  0.079226  0  3.835186  0  0.40159  0  0.075417  0.063086  0  3.814173  0
C  C59  1  0.24859849  0.35616328  0.41397190  1  0  0.109483  0  3.570748  0  0  0.066451  0  3.825264  0  0  0.07617  0  3.838124  0  0.382421  0  0.074235  0.060214  0  3.816499  0
C  C60  1  0.98414734  0.85686900  0.91040198  1  0  0.112331  0  3.568283  0  0  0.069632  0  3.822262  0  0  0.079297  0  3.835184  0  0.401652  0  0.075385  0.063147  0  3.814173  0
C  C61  1  0.75138954  0.64384184  0.58603268  1  0  0.109601  0  3.570711  0  0  0.06656  0  3.825236  0  0  0.076279  0  3.838099  0  0.382619  0  0.074261  0.060324  0  3.816471  0
C  C62  1  0.74506161  0.32639675  0.14682414  1  0  0.09217  0  3.584427  0  0  0.053132  0  3.833658  0  0  0.060259  0  3.849485  0  0.350403  0  0.064901  0.048493  0  3.823015  0
C  C63  1  0.21954299  0.17249736  0.35471296  1  0  0.09078  0  3.587016  0  0  0.052737  0  3.835337  0  0  0.059851  0  3.851036  0  0.327405  0  0.065464  0.048216  0  3.824744  0
C  C64  1  0.25494147  0.67360199  0.85317596  1  0  0.092459  0  3.584208  0  0  0.053386  0  3.833431  0  0  0.060504  0  3.84927  0  0.34987  0  0.065043  0.048778  0  3.822733  0
C  C65  1  0.78045268  0.82750564  0.64529234  1  0  0.090685  0  3.586842  0  0  0.052677  0  3.835185  0  0  0.059788  0  3.850889  0  0.327513  0  0.065413  0.048156  0  3.824598  0
C  C66  1  0.91999872  0.18481799  0.25923379  1  0  -0.056599  0  3.608464  0  0  -0.124909  0  3.854229  0  0  -0.120637  0  3.864895  0  0.234089  0  -0.045618  -0.127668  0  3.847012  0
C  C67  1  0.36586975  0.31233153  0.24485753  1  0  -0.056409  0  3.611217  0  0  -0.125047  0  3.857197  0  0  -0.1208  0  3.867939  0  0.245471  0  -0.045878  -0.127794  0  3.849951  0
C  C68  1  0.08001223  0.81517969  0.74076141  1  0  -0.056523  0  3.608597  0  0  -0.12468  0  3.854209  0  0  -0.120408  0  3.864875  0  0.234132  0  -0.04561  -0.127455  0  3.847009  0
C  C69  1  0.63412780  0.68766827  0.75514635  1  0  -0.056591  0  3.611356  0  0  -0.125158  0  3.857354  0  0  -0.120912  0  3.868092  0  0.245576  0  -0.045905  -0.127913  0  3.85011  0
C  C70  1  0.78616067  0.13563333  0.32656344  1  0  0.056282  0  3.749328  0  0  0.078959  0  3.989218  0  0  0.077509  0  4.013944  0  -0.044795  0  -0.019729  0.080006  0  3.972195  0
C  C71  1  0.25039456  0.36251507  0.17583161  1  0  0.055939  0  3.74936  0  0  0.07776  0  3.990496  0  0  0.076173  0  4.015421  0  0.010919  0  -0.020319  0.078776  0  3.973881  0
C  C72  1  0.21385059  0.86436435  0.67343265  1  0  0.056143  0  3.749334  0  0  0.078719  0  3.989323  0  0  0.077266  0  4.014053  0  -0.045235  0  -0.019773  0.079765  0  3.972304  0
C  C73  1  0.74960449  0.63748579  0.82417020  1  0  0.055885  0  3.749486  0  0  0.077712  0  3.990581  0  0  0.076131  0  4.015489  0  0.010817  0  -0.020318  0.07873  0  3.973965  0
C  C74  1  0.70483065  0.19341116  0.41491644  1  0  -0.103749  0  3.745662  0  0  -0.125678  0  3.995322  0  0  -0.127831  0  4.016954  0  -0.08126  0  -0.094533  -0.123879  0  3.980266  0
C  C75  1  0.31401362  0.30600739  0.08694767  1  0  -0.103371  0  3.748357  0  0  -0.124797  0  3.997636  0  0  -0.127017  0  4.019343  0  -0.094904  0  -0.094078  -0.123581  0  3.983639  0
C  C76  1  0.29517834  0.80658227  0.58508053  1  0  -0.103597  0  3.745446  0  0  -0.1255  0  3.99509  0  0  -0.127652  0  4.016723  0  -0.081303  0  -0.094413  -0.123701  0  3.980038  0
C  C77  1  0.68598879  0.69399135  0.91305311  1  0  -0.103245  0  3.748415  0  0  -0.124669  0  3.997699  0  0  -0.126871  0  4.019413  0  -0.094788  0  -0.094028  -0.123454  0  3.983701  0
C  C78  1  0.74878340  0.02645925  0.30597395  1  0  -0.105162  0  3.728791  0  0  -0.128311  0  3.981044  0  0  -0.12996  0  4.000916  0  -0.072255  0  -0.095121  -0.126813  0  3.967244  0
C  C79  1  0.08388750  0.47102855  0.19591289  1  0  -0.10367  0  3.728398  0  0  -0.126438  0  3.981438  0  0  -0.128034  0  4.001457  0  -0.11145  0  -0.095479  -0.125321  0  3.967938  0
C  C80  1  0.25122490  0.97354055  0.69401917  1  0  -0.104968  0  3.728665  0  0  -0.128158  0  3.98097  0  0  -0.129795  0  4.000822  0  -0.071595  0  -0.095099  -0.126656  0  3.967172  0
C  C81  1  0.91611504  0.52897339  0.80408729  1  0  -0.103671  0  3.728379  0  0  -0.12639  0  3.981425  0  0  -0.127997  0  4.001449  0  -0.111519  0  -0.095477  -0.125273  0  3.967921  0
C  C82  1  0.59363887  0.14075115  0.48224433  1  0  -0.103167  0  3.735882  0  0  -0.120572  0  3.982253  0  0  -0.123976  0  4.00484  0  -0.072087  0  -0.093204  -0.118193  0  3.966937  0
C  C83  1  0.21672098  0.35935141  0.01862804  1  0  -0.104073  0  3.736332  0  0  -0.121526  0  3.98211  0  0  -0.125023  0  4.004883  0  -0.04247  0  -0.093376  -0.119047  0  3.967071  0
C  C84  1  0.40637099  0.85924121  0.51775112  1  0  -0.103313  0  3.735795  0  0  -0.120706  0  3.982146  0  0  -0.124116  0  4.004737  0  -0.071871  0  -0.093281  -0.118321  0  3.966827  0
C  C85  1  0.78328174  0.64064733  0.98137363  1  0  -0.10402  0  3.736287  0  0  -0.121485  0  3.982046  0  0  -0.12498  0  4.004814  0  -0.04234  0  -0.093336  -0.119001  0  3.967001  0
C  C86  1  0.63502283  0.97563725  0.37277913  1  0  -0.110387  0  3.737014  0  0  -0.129083  0  3.988274  0  0  -0.132597  0  4.010532  0  -0.016665  0  -0.094518  -0.126288  0  3.972087  0
C  C87  1  0.98540684  0.52260351  0.12809099  1  0  -0.111695  0  3.739733  0  0  -0.130996  0  3.990887  0  0  -0.134565  0  4.013326  0  -0.029156  0  -0.095083  -0.128379  0  3.975379  0
C  C88  1  0.36498637  0.02435936  0.62721235  1  0  -0.11054  0  3.737138  0  0  -0.129247  0  3.988432  0  0  -0.132767  0  4.010688  0  -0.017154  0  -0.094536  -0.126444  0  3.972233  0
C  C89  1  0.01459621  0.47739736  0.87190924  1  0  -0.111671  0  3.739759  0  0  -0.130991  0  3.99085  0  0  -0.13456  0  4.013288  0  -0.029098  0  -0.095101  -0.128378  0  3.975346  0
C  C90  1  0.55703217  0.02950165  0.46347498  1  0  0.031262  0  3.786722  0  0  0.046696  0  4.015368  0  0  0.046159  0  4.041646  0  -0.016787  0  -0.016497  0.046927  0  3.997797  0
C  C91  1  0.05056715  0.47005519  0.03694712  1  0  0.032321  0  3.788932  0  0  0.048089  0  4.017049  0  0  0.047512  0  4.043501  0  0.003765  0  -0.015753  0.048476  0  3.999138  0
C  C92  1  0.44297888  0.97049177  0.53651752  1  0  0.031445  0  3.786703  0  0  0.046922  0  4.015323  0  0  0.046392  0  4.041588  0  -0.048567  0  -0.016445  0.047152  0  3.99775  0
C  C93  1  0.94943771  0.52994461  0.96305426  1  0  0.032175  0  3.789  0  0  0.048085  0  4.016989  0  0  0.04751  0  4.043437  0  -0.03249  0  -0.015786  0.048473  0  3.999079  0
Br  Br94  1  0.51013310  0.06306372  0.83893818  1  0  -0.581031  0  0.858806  0  0  -0.521565  0  1.126967  0  0  -0.540765  0  1.104016  0  -0.620277  0  -0.300831  -0.507693  0  1.142621  0
Br  Br95  1  0.40679090  0.43781539  0.65902750  1  0  -0.580356  0  0.85934  0  0  -0.520817  0  1.129189  0  0  -0.53996  0  1.106109  0  -0.61967  0  -0.2999  -0.506864  0  1.144318  0
Br  Br96  1  0.48986319  0.93693608  0.16106214  1  0  -0.581025  0  0.858845  0  0  -0.521567  0  1.127  0  0  -0.540759  0  1.104058  0  -0.620273  0  -0.300821  -0.507697  0  1.142655  0
Br  Br97  1  0.59320915  0.56218016  0.34096764  1  0  -0.580335  0  0.859305  0  0  -0.520792  0  1.129145  0  0  -0.539926  0  1.106068  0  -0.619735  0  -0.299905  -0.506836  0  1.144267  0
N  N98  1  0.89434063  0.21913534  0.16152892  1  0  -0.000471  0  3.540223  0  0  0.096161  0  3.74463  0  0  0.082767  0  3.770774  0  -1.233135  0  -0.206683  0.104906  0  3.726993  0
N  N99  1  0.27626999  0.27921731  0.34157057  1  0  0.000692  0  3.54159  0  0  0.097971  0  3.744123  0  0  0.084566  0  3.770335  0  -1.229518  0  -0.206704  0.106658  0  3.726447  0
N  N100  1  0.10566610  0.78086553  0.83846884  1  0  -0.000754  0  3.540162  0  0  0.095854  0  3.744596  0  0  0.082455  0  3.770744  0  -1.233012  0  -0.206775  0.104598  0  3.726965  0
N  N101  1  0.72372492  0.72078463  0.65843122  1  0  0.000635  0  3.541556  0  0  0.097863  0  3.744125  0  0  0.084462  0  3.770328  0  -1.228924  0  -0.206744  0.106543  0  3.726463  0
O  O102  1  0.62581105  0.36359161  0.88242098  1  0  -0.610832  0  1.954092  0  0  -0.547638  0  2.18758  0  0  -0.576874  0  2.181293  0  -1.158874  0  -0.320219  -0.527114  0  2.191066  0
O  O103  1  0.87257875  0.13812894  0.61509068  1  0  -0.60971  0  1.960611  0  0  -0.546266  0  2.194894  0  0  -0.575593  0  2.188584  0  -1.154001  0  -0.318682  -0.526025  0  2.19836  0
O  O104  1  0.37417353  0.63641032  0.11758511  1  0  -0.610868  0  1.954303  0  0  -0.547667  0  2.187797  0  0  -0.576901  0  2.181508  0  -1.158829  0  -0.320185  -0.527137  0  2.19128  0
O  O105  1  0.12742077  0.86187086  0.38491363  1  0  -0.609704  0  1.960549  0  0  -0.546237  0  2.194792  0  0  -0.575562  0  2.188484  0  -1.153969  0  -0.318693  -0.525995  0  2.198257  0
O  O106  1  0.86369709  0.16315742  0.84412707  1  0  -0.612581  0  1.968046  0  0  -0.55903  0  2.203516  0  0  -0.587171  0  2.19719  0  -1.149985  0  -0.320046  -0.538795  0  2.206777  0
O  O107  1  0.86850564  0.34049708  0.65357391  1  0  -0.610662  0  1.969036  0  0  -0.556484  0  2.203986  0  0  -0.584713  0  2.197792  0  -1.148449  0  -0.31782  -0.536899  0  2.207392  0
O  O108  1  0.13629211  0.83685089  0.15587470  1  0  -0.612641  0  1.967917  0  0  -0.559071  0  2.203371  0  0  -0.587209  0  2.197047  0  -1.149908  0  -0.32003  -0.538834  0  2.206631  0
O  O109  1  0.13148310  0.65950592  0.34642988  1  0  -0.610575  0  1.969061  0  0  -0.556431  0  2.204049  0  0  -0.584654  0  2.197849  0  -1.148865  0  -0.317736  -0.536847  0  2.207457  0
