# generated using pymatgen
data_GdH18(C2O)7
_symmetry_space_group_name_H-M   'P 1'
_cell_length_a   12.86607734
_cell_length_b   14.15475858
_cell_length_c   18.86728792
_cell_angle_alpha   90.00068189
_cell_angle_beta   90.00002703
_cell_angle_gamma   89.99991273
_symmetry_Int_Tables_number   1
_chemical_formula_structural   GdH18(C2O)7
_chemical_formula_sum   'Gd8 H144 C112 O56'
_cell_volume   3436.03913057
_cell_formula_units_Z   8
loop_
 _symmetry_equiv_pos_site_id
 _symmetry_equiv_pos_as_xyz
  1  'x, y, z'
loop_
 _atom_site_type_symbol
 _atom_site_label
 _atom_site_symmetry_multiplicity
 _atom_site_fract_x
 _atom_site_fract_y
 _atom_site_fract_z
 _atom_site_occupancy
 _atom_site_pbe_bader_charge
 _atom_site_pbe_bader_spin_density
 _atom_site_pbe_cm5_charge
 _atom_site_pbe_ddec_charge
 _atom_site_pbe_ddec_spin_density
 _atom_site_pbe_ddec_sum_bond_order
 _atom_site_pbe_magmom
Gd  Gd0  1  0.71655282  0.00331571  0.88969610  1  2.197976  0  1.500235  2.121809  0  2.234362  0
Gd  Gd1  1  0.78345021  0.99668928  0.38969862  1  2.197935  0  1.500196  2.1217  0  2.234513  0
Gd  Gd2  1  0.28344827  0.50331101  0.61030092  1  2.197922  0  1.500213  2.121756  0  2.234577  0
Gd  Gd3  1  0.21654892  0.49668528  0.11030533  1  2.197848  0  1.500218  2.121764  0  2.234447  0
Gd  Gd4  1  0.77194412  0.02114824  0.67357026  1  2.191117  0  1.496482  2.043344  0  2.276948  0
Gd  Gd5  1  0.72805876  0.97885190  0.17357367  1  2.191237  0  1.496493  2.043338  0  2.277029  0
Gd  Gd6  1  0.22805771  0.52114847  0.82642638  1  2.191263  0  1.496506  2.043319  0  2.277068  0
Gd  Gd7  1  0.27194274  0.47885339  0.32642800  1  2.191239  0  1.496468  2.043292  0  2.27705  0
H  H8  1  0.99347865  0.06832469  0.88172231  1  0.055868  0  0.104085  0.092342  0  1.024476  0
H  H9  1  0.50653292  0.93167523  0.38172311  1  0.056047  0  0.10413  0.092413  0  1.024664  0
H  H10  1  0.00652931  0.56832404  0.61827687  1  0.055976  0  0.104132  0.092436  0  1.024675  0
H  H11  1  0.49347721  0.43167239  0.11827814  1  0.055764  0  0.104106  0.092353  0  1.02444  0
H  H12  1  0.12642338  0.03887411  0.75410222  1  0.054373  0  0.093993  0.099856  0  1.003169  0
H  H13  1  0.37357780  0.96113507  0.25411293  1  0.053345  0  0.094074  0.099997  0  1.003075  0
H  H14  1  0.87357531  0.53886722  0.74588876  1  0.053289  0  0.094047  0.099949  0  1.003136  0
H  H15  1  0.62642217  0.46112560  0.24589812  1  0.054483  0  0.094029  0.099939  0  1.00324  0
H  H16  1  0.15394930  0.01283833  0.84377742  1  0.023162  0  0.090782  0.088124  0  0.997639  0
H  H17  1  0.34606204  0.98716451  0.34379313  1  0.02295  0  0.090859  0.088152  0  0.99761  0
H  H18  1  0.84605643  0.51283429  0.65620908  1  0.022967  0  0.090862  0.088151  0  0.997609  0
H  H19  1  0.65394799  0.48716063  0.15622187  1  0.023194  0  0.090793  0.088146  0  0.997632  0
H  H20  1  0.26845806  0.14658401  0.83479635  1  0.034598  0  0.092149  0.092635  0  0.989506  0
H  H21  1  0.23154550  0.85342504  0.33480659  1  0.034297  0  0.092168  0.092671  0  0.989467  0
H  H22  1  0.73154278  0.64657674  0.66519505  1  0.034273  0  0.092206  0.092688  0  0.989441  0
H  H23  1  0.76845853  0.35341691  0.16520403  1  0.034612  0  0.09216  0.092632  0  0.989448  0
H  H24  1  0.20122461  0.18975340  0.76020394  1  0.013659  0  0.089342  0.084634  0  1.017977  0
H  H25  1  0.29877346  0.81025659  0.26021064  1  0.013324  0  0.089379  0.084671  0  1.017934  0
H  H26  1  0.79877150  0.68974581  0.73979050  1  0.013256  0  0.089391  0.084691  0  1.017934  0
H  H27  1  0.70122521  0.31024691  0.23979748  1  0.013617  0  0.089315  0.084585  0  1.018016  0
H  H28  1  0.22347619  0.21533008  0.95457963  1  0.046156  0  0.09479  0.131115  0  0.987106  0
H  H29  1  0.27652434  0.78465898  0.45458239  1  0.046162  0  0.094767  0.131122  0  0.987197  0
H  H30  1  0.77652298  0.71533991  0.54541874  1  0.04616  0  0.094779  0.131112  0  0.987178  0
H  H31  1  0.72347747  0.28466879  0.04542127  1  0.046144  0  0.09479  0.131104  0  0.987082  0
H  H32  1  0.13155625  0.12259801  0.94595475  1  0.027552  0  0.094625  0.133362  0  0.997592  0
H  H33  1  0.36843806  0.87739515  0.44596631  1  0.027563  0  0.094659  0.133383  0  0.997456  0
H  H34  1  0.86843764  0.62260573  0.55403538  1  0.027585  0  0.09467  0.133377  0  0.997465  0
H  H35  1  0.63155661  0.37740099  0.05404665  1  0.027582  0  0.094635  0.133341  0  0.997557  0
H  H36  1  0.08990011  0.23570863  0.97359091  1  -0.0011  0  0.090038  0.114363  0  1.052187  0
H  H37  1  0.41009966  0.76428144  0.47359618  1  -0.000856  0  0.090017  0.114329  0  1.052275  0
H  H38  1  0.91009980  0.73571797  0.52640552  1  -0.000812  0  0.090042  0.114348  0  1.05223  0
H  H39  1  0.58989986  0.26428972  0.02641047  1  -0.001088  0  0.090051  0.11438  0  1.052147  0
H  H40  1  0.99192003  0.33063274  0.76790426  1  0.030508  0  0.091718  0.131386  0  1.000081  0
H  H41  1  0.50807825  0.66936466  0.26790908  1  0.030446  0  0.091673  0.131328  0  1.000142  0
H  H42  1  0.00807739  0.83063390  0.73209196  1  0.030468  0  0.091679  0.131365  0  1.000098  0
H  H43  1  0.49192066  0.16936504  0.23209778  1  0.03046  0  0.09171  0.131353  0  1.000064  0
H  H44  1  0.91076794  0.23431801  0.74478020  1  0.028399  0  0.093847  0.125719  0  1.034407  0
H  H45  1  0.58923187  0.76568256  0.24478484  1  0.028479  0  0.093828  0.125744  0  1.03431  0
H  H46  1  0.08923120  0.73431801  0.75521623  1  0.02849  0  0.093841  0.125757  0  1.034309  0
H  H47  1  0.41076764  0.26568130  0.25522129  1  0.028392  0  0.093851  0.125698  0  1.034439  0
H  H48  1  0.04359299  0.23159708  0.72158487  1  0.040689  0  0.092146  0.134424  0  1.004517  0
H  H49  1  0.45640428  0.76840452  0.22159125  1  0.040643  0  0.0921  0.134367  0  1.004485  0
H  H50  1  0.95640383  0.73159695  0.77841100  1  0.040592  0  0.092131  0.134416  0  1.004437  0
H  H51  1  0.54359446  0.26840345  0.27841597  1  0.040651  0  0.092155  0.134427  0  1.004451  0
H  H52  1  0.93701835  0.31618779  0.89821650  1  0.048807  0  0.09086  0.132732  0  0.994313  0
H  H53  1  0.56297924  0.68381098  0.39822041  1  0.049135  0  0.090839  0.132685  0  0.994343  0
H  H54  1  0.06297987  0.81618680  0.60178118  1  0.049126  0  0.090849  0.132706  0  0.994337  0
H  H55  1  0.43701964  0.18381007  0.10178499  1  0.04886  0  0.090862  0.132732  0  0.994293  0
H  H56  1  0.93406341  0.20224340  0.93901094  1  0.042281  0  0.090723  0.130778  0  1.016211  0
H  H57  1  0.56593344  0.79775249  0.43901481  1  0.042195  0  0.090692  0.130703  0  1.016304  0
H  H58  1  0.06593346  0.70224670  0.56098732  1  0.042239  0  0.090706  0.130729  0  1.016283  0
H  H59  1  0.43406447  0.29775235  0.06099055  1  0.042058  0  0.090742  0.130807  0  1.016264  0
H  H60  1  0.85088494  0.22726345  0.86734997  1  0.051261  0  0.09118  0.121653  0  1.046219  0
H  H61  1  0.64911963  0.77273624  0.36735735  1  0.05092  0  0.091247  0.121712  0  1.046097  0
H  H62  1  0.14911888  0.72726283  0.63264533  1  0.050836  0  0.091231  0.121676  0  1.046146  0
H  H63  1  0.35088532  0.27273312  0.13265044  1  0.051278  0  0.091209  0.121699  0  1.046137  0
H  H64  1  0.39142499  0.89381259  0.84593644  1  0.039367  0  0.093201  0.099491  0  1.003215  0
H  H65  1  0.10857936  0.10618675  0.34594316  1  0.039294  0  0.093239  0.099577  0  1.003091  0
H  H66  1  0.60857544  0.39381298  0.65405558  1  0.039227  0  0.093212  0.099514  0  1.003101  0
H  H67  1  0.89142043  0.60619109  0.15406155  1  0.039312  0  0.093234  0.099523  0  1.003124  0
H  H68  1  0.33199264  0.99655096  0.81328778  1  0.043387  0  0.089853  0.089648  0  1.010024  0
H  H69  1  0.16802568  0.00344503  0.31329043  1  0.043142  0  0.089917  0.089654  0  1.010255  0
H  H70  1  0.66802006  0.49655462  0.68670939  1  0.043155  0  0.08988  0.089634  0  1.010235  0
H  H71  1  0.83198594  0.50345421  0.18670966  1  0.0433  0  0.089824  0.089614  0  1.010176  0
H  H72  1  0.21174236  0.90611305  0.74200419  1  0.014534  0  0.085843  0.077002  0  1.02155  0
H  H73  1  0.28826502  0.09389312  0.24200716  1  0.014535  0  0.085852  0.076976  0  1.021686  0
H  H74  1  0.78826038  0.40610707  0.75799111  1  0.014606  0  0.085876  0.077062  0  1.021642  0
H  H75  1  0.71174333  0.59388947  0.25799585  1  0.014533  0  0.085857  0.076985  0  1.021672  0
H  H76  1  0.23767965  0.81906084  0.80672535  1  0.049925  0  0.092208  0.09341  0  1.018822  0
H  H77  1  0.26232078  0.18094706  0.30672803  1  0.049825  0  0.09216  0.093331  0  1.018878  0
H  H78  1  0.76231857  0.31905599  0.69327182  1  0.049915  0  0.092154  0.093344  0  1.018883  0
H  H79  1  0.73767500  0.68094376  0.19327629  1  0.05047  0  0.092183  0.093354  0  1.018888  0
H  H80  1  0.29572215  0.82144749  0.65615683  1  0.064972  0  0.101441  0.087688  0  0.986238  0
H  H81  1  0.20427506  0.17854600  0.15616000  1  0.065043  0  0.101479  0.087649  0  0.986273  0
H  H82  1  0.70427296  0.32145642  0.84383984  1  0.06507  0  0.101495  0.087676  0  0.986236  0
H  H83  1  0.79571838  0.67855137  0.34384377  1  0.064926  0  0.101445  0.08766  0  0.986212  0
H  H84  1  0.40421818  0.07587102  0.71004681  1  0.044343  0  0.085967  0.117557  0  1.022095  0
H  H85  1  0.09579540  0.92412475  0.21004439  1  0.044242  0  0.086013  0.11764  0  1.022069  0
H  H86  1  0.59579211  0.57587510  0.78995562  1  0.044265  0  0.086014  0.117651  0  1.022049  0
H  H87  1  0.90421474  0.42412760  0.28995203  1  0.044288  0  0.086014  0.117635  0  1.02213  0
H  H88  1  0.34210445  0.98822884  0.65813031  1  0.035921  0  0.089385  0.124108  0  0.999396  0
H  H89  1  0.15789976  0.01176610  0.15813197  1  0.035867  0  0.089376  0.124115  0  0.999476  0
H  H90  1  0.65789738  0.48823286  0.84186837  1  0.035911  0  0.089396  0.124135  0  0.999454  0
H  H91  1  0.84210173  0.51176996  0.34186978  1  0.035868  0  0.089413  0.124146  0  0.999507  0
H  H92  1  0.47634198  0.01407780  0.64466407  1  0.057414  0  0.091458  0.129731  0  1.043773  0
H  H93  1  0.02366456  0.98591622  0.14466430  1  0.057525  0  0.091518  0.129807  0  1.043846  0
H  H94  1  0.52366142  0.51408161  0.85533463  1  0.057276  0  0.091506  0.129768  0  1.04383  0
H  H95  1  0.97634081  0.48592283  0.35533214  1  0.057301  0  0.091499  0.129736  0  1.043844  0
H  H96  1  0.50284991  0.68934541  0.73534466  1  0.033695  0  0.091591  0.129488  0  1.013854  0
H  H97  1  0.99715068  0.31064653  0.23535280  1  0.033967  0  0.09161  0.129533  0  1.013721  0
H  H98  1  0.49714697  0.18935195  0.76464818  1  0.033928  0  0.091603  0.129552  0  1.013707  0
H  H99  1  0.00284721  0.81065387  0.26465638  1  0.033698  0  0.091599  0.129483  0  1.013843  0
H  H100  1  0.48136392  0.76252847  0.81004835  1  -0.001265  0  0.090841  0.127152  0  1.045048  0
H  H101  1  0.01863651  0.23746182  0.31005145  1  -0.001508  0  0.090811  0.12721  0  1.04492  0
H  H102  1  0.51863129  0.26253592  0.68994885  1  -0.000653  0  0.090813  0.127239  0  1.044963  0
H  H103  1  0.98136150  0.73747084  0.18995284  1  -0.001647  0  0.090839  0.127177  0  1.044993  0
H  H104  1  0.59150779  0.78153075  0.75465258  1  0.057131  0  0.090187  0.125443  0  1.02222  0
H  H105  1  0.90849359  0.21845867  0.25466305  1  0.056742  0  0.090212  0.125477  0  1.022272  0
H  H106  1  0.40848816  0.28153923  0.74533897  1  0.056659  0  0.090226  0.125492  0  1.022284  0
H  H107  1  0.09150368  0.71846769  0.24534849  1  0.057196  0  0.090227  0.125476  0  1.02215  0
H  H108  1  0.49604511  0.74967895  0.61626369  1  -0.015103  0  0.086276  0.116743  0  1.021415  0
H  H109  1  0.00395519  0.25030826  0.11627326  1  -0.015082  0  0.08625  0.116696  0  1.021488  0
H  H110  1  0.50395556  0.24969091  0.88372810  1  -0.015112  0  0.086293  0.116798  0  1.021434  0
H  H111  1  0.99604202  0.75031682  0.38373751  1  -0.015328  0  0.086308  0.116792  0  1.021356  0
H  H112  1  0.57043911  0.85328304  0.63165959  1  0.07842  0  0.094846  0.136557  0  1.015785  0
H  H113  1  0.92956297  0.14670937  0.13166837  1  0.078453  0  0.094882  0.136572  0  1.015714  0
H  H114  1  0.42955984  0.35329063  0.86833365  1  0.078413  0  0.09486  0.136527  0  1.01576  0
H  H115  1  0.07043442  0.64671190  0.36833988  1  0.078491  0  0.094821  0.136497  0  1.015813  0
H  H116  1  0.44430351  0.86252919  0.59416297  1  0.022932  0  0.085717  0.118805  0  1.016878  0
H  H117  1  0.05569211  0.13746332  0.09417102  1  0.022919  0  0.085688  0.118771  0  1.017013  0
H  H118  1  0.55569308  0.36253649  0.90582824  1  0.022933  0  0.085669  0.118767  0  1.017038  0
H  H119  1  0.94429985  0.63746593  0.40583715  1  0.022831  0  0.085743  0.118835  0  1.016843  0
H  H120  1  0.53399146  0.80918987  0.91012973  1  0.088454  0  0.106211  0.102324  0  1.061034  0
H  H121  1  0.96601003  0.19081192  0.41013573  1  0.085924  0  0.106212  0.102335  0  1.061117  0
H  H122  1  0.46601067  0.30919297  0.58986153  1  0.086023  0  0.106175  0.102215  0  1.061096  0
H  H123  1  0.03398573  0.69080513  0.08986867  1  0.087933  0  0.106163  0.102239  0  1.061149  0
H  H124  1  0.42143978  0.66707290  0.88789271  1  0.100356  0  0.111166  0.102314  0  1.037809  0
H  H125  1  0.07855449  0.33292782  0.38789773  1  0.10052  0  0.111177  0.102361  0  1.037747  0
H  H126  1  0.57855714  0.16707690  0.61209782  1  0.100609  0  0.111208  0.1024  0  1.037798  0
H  H127  1  0.92143870  0.83292297  0.11210582  1  0.100362  0  0.111182  0.102318  0  1.037814  0
H  H128  1  0.47615634  0.57367257  0.10124983  1  0.087973  0  0.107564  0.102019  0  1.040449  0
H  H129  1  0.02385250  0.42633701  0.60125260  1  0.088318  0  0.107557  0.102025  0  1.040269  0
H  H130  1  0.52384350  0.07366567  0.39874294  1  0.087669  0  0.10755  0.102021  0  1.040266  0
H  H131  1  0.97615720  0.92633029  0.89875084  1  0.087886  0  0.107581  0.102036  0  1.040456  0
H  H132  1  0.58940442  0.71437164  0.12280630  1  0.102369  0  0.109016  0.111085  0  1.024163  0
H  H133  1  0.91060153  0.28564112  0.62281165  1  0.102902  0  0.109061  0.111138  0  1.024053  0
H  H134  1  0.41059363  0.21436101  0.37718931  1  0.102691  0  0.109033  0.111094  0  1.024098  0
H  H135  1  0.08940374  0.78562964  0.87719424  1  0.102242  0  0.109032  0.11111  0  1.024116  0
H  H136  1  0.73348660  0.79614288  0.86548894  1  0.611443  0  0.336187  0.422252  0  0.863545  0
H  H137  1  0.76651253  0.20386456  0.36548811  1  0.611316  0  0.336203  0.422224  0  0.863542  0
H  H138  1  0.26651244  0.29613778  0.63451333  1  0.611383  0  0.336195  0.422257  0  0.863528  0
H  H139  1  0.23348554  0.70386032  0.13451270  1  0.611437  0  0.336194  0.422246  0  0.863539  0
H  H140  1  0.78308985  0.83980745  0.79442435  1  0.64882  0  0.308009  0.416288  0  0.915586  0
H  H141  1  0.71691156  0.16019249  0.29442417  1  0.64881  0  0.308002  0.416284  0  0.915592  0
H  H142  1  0.21690990  0.33980850  0.70557672  1  0.6488  0  0.307982  0.416256  0  0.915634  0
H  H143  1  0.28308736  0.66019426  0.20557678  1  0.648809  0  0.307962  0.416225  0  0.915684  0
H  H144  1  0.61878215  0.10671931  0.01854060  1  0.668715  0  0.304785  0.420614  0  0.907899  0
H  H145  1  0.88121518  0.89328614  0.51854129  1  0.668706  0  0.304791  0.420629  0  0.907878  0
H  H146  1  0.38121531  0.60671543  0.48145988  1  0.668718  0  0.30481  0.420648  0  0.907852  0
H  H147  1  0.11878214  0.39328112  0.98146027  1  0.668725  0  0.30482  0.420646  0  0.90786  0
H  H148  1  0.60887964  0.15771658  0.94227878  1  0.631076  0  0.312075  0.394626  0  0.926846  0
H  H149  1  0.89111799  0.84228925  0.44227997  1  0.631189  0  0.312059  0.39463  0  0.926841  0
H  H150  1  0.39111885  0.65771231  0.55772067  1  0.631154  0  0.312036  0.394601  0  0.926884  0
H  H151  1  0.10887985  0.34228386  0.05772261  1  0.631072  0  0.312056  0.394614  0  0.926853  0
C  C152  1  0.01293655  0.09520072  0.82880794  1  -0.010307  0  -0.084548  -0.18194  0  3.766271  0
C  C153  1  0.48707011  0.90480188  0.32881289  1  -0.010571  0  -0.084676  -0.182155  0  3.766562  0
C  C154  1  0.98706982  0.59519954  0.67118724  1  -0.010478  0  -0.084677  -0.1822  0  3.766553  0
C  C155  1  0.51293539  0.40479844  0.17119289  1  -0.010248  0  -0.08454  -0.181914  0  3.766345  0
C  C156  1  0.12500724  0.06796158  0.80792460  1  -0.030418  0  -0.165122  -0.163658  0  3.894179  0
C  C157  1  0.37499863  0.93204634  0.30793506  1  -0.029362  0  -0.165292  -0.163849  0  3.894122  0
C  C158  1  0.87499684  0.56795383  0.69206610  1  -0.029008  0  -0.165261  -0.163766  0  3.894124  0
C  C159  1  0.62500528  0.43203813  0.19207573  1  -0.030474  0  -0.165157  -0.163789  0  3.894329  0
C  C160  1  0.19045525  0.15877414  0.81289393  1  -0.027568  0  -0.163947  -0.185275  0  3.900415  0
C  C161  1  0.30954752  0.84123527  0.31290197  1  -0.026644  0  -0.16395  -0.185234  0  3.900476  0
C  C162  1  0.80954480  0.65876640  0.68710023  1  -0.026923  0  -0.164014  -0.185324  0  3.900335  0
C  C163  1  0.69045498  0.34122548  0.18710748  1  -0.0272  0  -0.163927  -0.185217  0  3.900368  0
C  C164  1  0.12685307  0.22588273  0.86012942  1  0.051356  0  -0.009495  0.011766  0  3.738002  0
C  C165  1  0.37314584  0.77412107  0.36013264  1  0.051008  0  -0.009533  0.011714  0  3.738037  0
C  C166  1  0.87314531  0.72587910  0.63986799  1  0.051411  0  -0.009512  0.011712  0  3.737928  0
C  C167  1  0.62685366  0.27411627  0.13987198  1  0.050967  0  -0.009488  0.01177  0  3.737847  0
C  C168  1  0.01073999  0.20631464  0.83495134  1  0.03608  0  0.003809  0.212742  0  3.663984  0
C  C169  1  0.48926046  0.79368594  0.33495530  1  0.036222  0  0.003946  0.212828  0  3.66387  0
C  C170  1  0.98925842  0.70631266  0.66504536  1  0.036147  0  0.003963  0.212899  0  3.66382  0
C  C171  1  0.51074056  0.29368382  0.16505055  1  0.03603  0  0.003744  0.212712  0  3.66401  0
C  C172  1  0.93219344  0.05472637  0.77893428  1  1.506116  0  0.222648  0.657821  0  4.085885  0
C  C173  1  0.56780873  0.94527263  0.27893416  1  1.506061  0  0.222694  0.657995  0  4.085708  0
C  C174  1  0.06780833  0.55472868  0.72106637  1  1.506082  0  0.222683  0.657964  0  4.0856  0
C  C175  1  0.43219204  0.44527574  0.22106456  1  1.505605  0  0.222723  0.65791  0  4.085666  0
C  C176  1  0.15559134  0.32946475  0.84919614  1  1.517189  0  0.224321  0.598789  0  4.08223  0
C  C177  1  0.34440601  0.67053817  0.34919472  1  1.51721  0  0.224384  0.598929  0  4.081988  0
C  C178  1  0.84440686  0.82946345  0.65080643  1  1.517243  0  0.224417  0.598993  0  4.082061  0
C  C179  1  0.65559367  0.17053350  0.15080632  1  1.517257  0  0.224389  0.598863  0  4.082162  0
C  C180  1  0.14356295  0.19871015  0.93822743  1  -0.05444  0  -0.239865  -0.399992  0  3.918881  0
C  C181  1  0.35643446  0.80128218  0.43823778  1  -0.05462  0  -0.239818  -0.399933  0  3.918755  0
C  C182  1  0.85643392  0.69871801  0.56176443  1  -0.054892  0  -0.239855  -0.399915  0  3.918692  0
C  C183  1  0.64356344  0.30128883  0.06177344  1  -0.054415  0  -0.239862  -0.399952  0  3.918753  0
C  C184  1  0.98898058  0.25329264  0.76310354  1  -0.070327  0  -0.2465  -0.428813  0  3.879244  0
C  C185  1  0.51102002  0.74670469  0.26310905  1  -0.070185  0  -0.24649  -0.428804  0  3.879127  0
C  C186  1  0.01101852  0.75329457  0.73689252  1  -0.070171  0  -0.246538  -0.428916  0  3.878995  0
C  C187  1  0.48898108  0.24670586  0.23689797  1  -0.070242  0  -0.246468  -0.428754  0  3.879214  0
C  C188  1  0.92912867  0.23994764  0.88834352  1  -0.112737  0  -0.245253  -0.427026  0  3.8949  0
C  C189  1  0.57087202  0.76004886  0.38834917  1  -0.112682  0  -0.245292  -0.426956  0  3.894849  0
C  C190  1  0.07087201  0.73994961  0.61165295  1  -0.112673  0  -0.245296  -0.426976  0  3.89487  0
C  C191  1  0.42912984  0.26004812  0.11165744  1  -0.112569  0  -0.245316  -0.427106  0  3.894829  0
C  C192  1  0.44394753  0.93238461  0.74077789  1  0.054215  0  -0.009458  0.012143  0  3.726895  0
C  C193  1  0.05605985  0.06760953  0.24078266  1  0.054954  0  -0.009423  0.012181  0  3.727119  0
C  C194  1  0.55605361  0.43239028  0.75921765  1  0.054565  0  -0.009361  0.01226  0  3.726854  0
C  C195  1  0.94394466  0.56761405  0.25921959  1  0.054625  0  -0.009458  0.012153  0  3.72687  0
C  C196  1  0.35917502  0.92597455  0.79791748  1  -0.043216  0  -0.169294  -0.189679  0  3.901478  0
C  C197  1  0.14083240  0.07401908  0.29792393  1  -0.042952  0  -0.169302  -0.189663  0  3.901534  0
C  C198  1  0.64082768  0.42598061  0.70207482  1  -0.042942  0  -0.169267  -0.18959  0  3.901328  0
C  C199  1  0.85916977  0.57402776  0.20208049  1  -0.04308  0  -0.169298  -0.189656  0  3.901614  0
C  C200  1  0.27373877  0.86378609  0.76616170  1  -0.027921  0  -0.17108  -0.16548  0  3.920904  0
C  C201  1  0.22626630  0.13621340  0.26616555  1  -0.027595  0  -0.171055  -0.165415  0  3.920893  0
C  C202  1  0.72626094  0.36378759  0.73383376  1  -0.027635  0  -0.171058  -0.165543  0  3.921009  0
C  C203  1  0.77373421  0.63621493  0.23383837  1  -0.028254  0  -0.171075  -0.165406  0  3.921114  0
C  C204  1  0.32665236  0.80324624  0.70872340  1  -0.052432  0  -0.085993  -0.181202  0  3.773424  0
C  C205  1  0.17334723  0.19675304  0.20872831  1  -0.052886  0  -0.085995  -0.181128  0  3.773485  0
C  C206  1  0.67334433  0.30324801  0.79127099  1  -0.052842  0  -0.086072  -0.181177  0  3.773417  0
C  C207  1  0.82664930  0.69675329  0.29127668  1  -0.052474  0  -0.08596  -0.181169  0  3.77343  0
C  C208  1  0.44594355  0.82931159  0.70793010  1  0.053355  0  0.001328  0.209646  0  3.661412  0
C  C209  1  0.05406070  0.17068273  0.20793791  1  0.053463  0  0.001244  0.209558  0  3.661543  0
C  C210  1  0.55405621  0.32931708  0.79206293  1  0.053796  0  0.001247  0.209585  0  3.661448  0
C  C211  1  0.94593976  0.67068636  0.29206949  1  0.05336  0  0.001332  0.209677  0  3.661261  0
C  C212  1  0.54933162  0.95649895  0.77343135  1  1.519105  0  0.237921  0.649553  0  4.077008  0
C  C213  1  0.95068143  0.04349360  0.27344081  1  1.518567  0  0.238041  0.649545  0  4.076961  0
C  C214  1  0.45067647  0.45650707  0.72656069  1  1.517764  0  0.237934  0.649435  0  4.07697  0
C  C215  1  0.04932546  0.54349885  0.22656281  1  1.518406  0  0.238007  0.649523  0  4.076851  0
C  C216  1  0.31049290  0.69758290  0.71650889  1  1.566378  0  0.238081  0.679035  0  4.091187  0
C  C217  1  0.18950513  0.30241508  0.21650308  1  1.566086  0  0.238067  0.67911  0  4.090995  0
C  C218  1  0.68950552  0.19758595  0.78349304  1  1.565892  0  0.238104  0.679124  0  4.090994  0
C  C219  1  0.81048888  0.80241524  0.28349596  1  1.565684  0  0.238109  0.679111  0  4.090941  0
C  C220  1  0.41532107  0.00675766  0.68472384  1  -0.116874  0  -0.241836  -0.39294  0  3.897584  0
C  C221  1  0.08468550  0.99323912  0.18472680  1  -0.116983  0  -0.241997  -0.393175  0  3.897917  0
C  C222  1  0.58468312  0.50676004  0.81527268  1  -0.116771  0  -0.241984  -0.393141  0  3.897804  0
C  C223  1  0.91531597  0.49324024  0.31527447  1  -0.116782  0  -0.241954  -0.393076  0  3.897853  0
C  C224  1  0.50882215  0.76206316  0.75521642  1  -0.088741  0  -0.24816  -0.433902  0  3.887187  0
C  C225  1  0.99117923  0.23792981  0.25522338  1  -0.088653  0  -0.248151  -0.434034  0  3.887194  0
C  C226  1  0.49117461  0.26206869  0.74477707  1  -0.089453  0  -0.248179  -0.434134  0  3.887193  0
C  C227  1  0.00881956  0.73793682  0.24478410  1  -0.088369  0  -0.248177  -0.433917  0  3.887062  0
C  C228  1  0.49149355  0.82398695  0.63305340  1  -0.065845  0  -0.245005  -0.416916  0  3.895786  0
C  C229  1  0.00850521  0.17600405  0.13306230  1  -0.066065  0  -0.245017  -0.416796  0  3.895808  0
C  C230  1  0.50850311  0.32399440  0.86693853  1  -0.065964  0  -0.244987  -0.416866  0  3.895829  0
C  C231  1  0.99148902  0.67600881  0.36694780  1  -0.065925  0  -0.245094  -0.416977  0  3.895605  0
C  C232  1  0.57023844  0.76835689  0.01702981  1  -0.094539  0  -0.009948  -0.034429  0  3.953359  0
C  C233  1  0.92976200  0.23165489  0.51703575  1  -0.095061  0  -0.009832  -0.03424  0  3.953542  0
C  C234  1  0.42975331  0.26834510  0.48296310  1  -0.095137  0  -0.009837  -0.034257  0  3.953538  0
C  C235  1  0.07023481  0.73164229  0.98296860  1  -0.094542  0  -0.009958  -0.034509  0  3.953531  0
C  C236  1  0.52244876  0.75561952  0.95093397  1  -0.012404  0  -0.084828  -0.106987  0  3.96985  0
C  C237  1  0.97755198  0.24437726  0.45093940  1  -0.009745  0  -0.084938  -0.107157  0  3.970019  0
C  C238  1  0.47754957  0.25562549  0.54905681  1  -0.009873  0  -0.084904  -0.107021  0  3.969847  0
C  C239  1  0.02244446  0.74437478  0.04906495  1  -0.011978  0  -0.08477  -0.106892  0  3.969913  0
C  C240  1  0.45973973  0.67719001  0.93882589  1  -0.042198  0  -0.077312  -0.084914  0  3.959534  0
C  C241  1  0.04025535  0.32281363  0.43883134  1  -0.042436  0  -0.077349  -0.084923  0  3.959634  0
C  C242  1  0.54025562  0.17719044  0.56116579  1  -0.042009  0  -0.077396  -0.084968  0  3.959602  0
C  C243  1  0.95973941  0.82280651  0.06117424  1  -0.041773  0  -0.077239  -0.084764  0  3.959485  0
C  C244  1  0.44419816  0.61032884  0.99264466  1  0.057388  0  -0.011602  -0.049432  0  3.953799  0
C  C245  1  0.05580629  0.38967637  0.49264489  1  0.057537  0  -0.011551  -0.049439  0  3.953977  0
C  C246  1  0.55579963  0.11032556  0.50735013  1  0.057539  0  -0.011537  -0.049453  0  3.953911  0
C  C247  1  0.94419769  0.88966912  0.00735652  1  0.056972  0  -0.011658  -0.049474  0  3.95401  0
C  C248  1  0.49075203  0.62431809  0.05910780  1  -0.118926  0  -0.079039  -0.089242  0  3.97127  0
C  C249  1  0.00925600  0.37569364  0.55911171  1  -0.11927  0  -0.078998  -0.089179  0  3.971116  0
C  C250  1  0.50924928  0.12430693  0.44088647  1  -0.11919  0  -0.079022  -0.089251  0  3.970951  0
C  C251  1  0.99075145  0.87568192  0.94089286  1  -0.118565  0  -0.07909  -0.089353  0  3.97143  0
C  C252  1  0.55330017  0.70270380  0.07135476  1  0.006062  0  -0.079318  -0.087999  0  3.952442  0
C  C253  1  0.94670497  0.29730814  0.57135651  1  0.005789  0  -0.079436  -0.088163  0  3.952866  0
C  C254  1  0.44669479  0.20269253  0.42864128  1  0.006223  0  -0.079355  -0.088003  0  3.952698  0
C  C255  1  0.05329640  0.79729611  0.92864524  1  0.005935  0  -0.079384  -0.088014  0  3.952508  0
C  C256  1  0.63850160  0.85247141  0.02943208  1  1.582477  0  0.250078  0.679521  0  4.120684  0
C  C257  1  0.86150429  0.14753209  0.52943513  1  1.582084  0  0.250141  0.679506  0  4.120626  0
C  C258  1  0.36150088  0.35247012  0.47056210  1  1.581698  0  0.250107  0.679515  0  4.120803  0
C  C259  1  0.13849578  0.64752485  0.97056847  1  1.582524  0  0.250125  0.679705  0  4.120721  0
C  C260  1  0.37645885  0.52586461  0.97972138  1  1.557086  0  0.239598  0.655372  0  4.159769  0
C  C261  1  0.12354636  0.47413403  0.47972026  1  1.557028  0  0.239592  0.65534  0  4.159916  0
C  C262  1  0.62354374  0.02586921  0.52027637  1  1.557058  0  0.239562  0.65536  0  4.159554  0
C  C263  1  0.87645980  0.97413485  0.02027925  1  1.557414  0  0.239584  0.65532  0  4.159865  0
O  O264  1  0.84177041  0.03126950  0.80366692  1  -1.220612  0  -0.446043  -0.772569  0  2.41504  0
O  O265  1  0.65823100  0.96873695  0.30366651  1  -1.220641  0  -0.44607  -0.772657  0  2.414968  0
O  O266  1  0.15823295  0.53126564  0.69633353  1  -1.220625  0  -0.44612  -0.772693  0  2.414989  0
O  O267  1  0.34176973  0.46873132  0.19633402  1  -1.220653  0  -0.446077  -0.772584  0  2.415075  0
O  O268  1  0.95016238  0.04485354  0.71349453  1  -1.155945  0  -0.360256  -0.601068  0  2.167034  0
O  O269  1  0.54983741  0.95513806  0.21349502  1  -1.155898  0  -0.36026  -0.601085  0  2.166911  0
O  O270  1  0.04983863  0.54485974  0.78650551  1  -1.155916  0  -0.36023  -0.601041  0  2.16692  0
O  O271  1  0.45016023  0.45514784  0.28650804  1  -1.155341  0  -0.360321  -0.60113  0  2.166768  0
O  O272  1  0.13702543  0.39163787  0.89664044  1  -1.187778  0  -0.335554  -0.609233  0  2.2414  0
O  O273  1  0.36297195  0.60836086  0.39663900  1  -1.187706  0  -0.335663  -0.609396  0  2.241272  0
O  O274  1  0.86297034  0.89163933  0.60336057  1  -1.187732  0  -0.335644  -0.609408  0  2.24139  0
O  O275  1  0.63702783  0.10836182  0.10336096  1  -1.187758  0  -0.335621  -0.609311  0  2.241416  0
O  O276  1  0.19938553  0.35698151  0.79161831  1  -1.199904  0  -0.365068  -0.642721  0  2.326726  0
O  O277  1  0.30061256  0.64302756  0.29161928  1  -1.199952  0  -0.365028  -0.64271  0  2.326667  0
O  O278  1  0.80061651  0.85697554  0.70838292  1  -1.199994  0  -0.365104  -0.642783  0  2.326696  0
O  O279  1  0.69939105  0.14301739  0.20838258  1  -1.200054  0  -0.365099  -0.642752  0  2.3267  0
O  O280  1  0.62582577  0.97507112  0.73290363  1  -1.220123  0  -0.416318  -0.713617  0  2.407889  0
O  O281  1  0.87418259  0.02491866  0.23290283  1  -1.219924  0  -0.416399  -0.713839  0  2.407262  0
O  O282  1  0.37417685  0.47508212  0.76709282  1  -1.219888  0  -0.416303  -0.713629  0  2.407503  0
O  O283  1  0.12582355  0.52492515  0.26709162  1  -1.219947  0  -0.416363  -0.713734  0  2.407495  0
O  O284  1  0.55852715  0.95559518  0.84061589  1  -1.164132  0  -0.395082  -0.660985  0  2.280924  0
O  O285  1  0.94148129  0.04440196  0.34061687  1  -1.163756  0  -0.395086  -0.660814  0  2.281638  0
O  O286  1  0.44147862  0.45559801  0.65938198  1  -1.163085  0  -0.39512  -0.660896  0  2.281285  0
O  O287  1  0.05852016  0.54440684  0.15938093  1  -1.16361  0  -0.395106  -0.660894  0  2.281225  0
O  O288  1  0.32699135  0.64812134  0.66081545  1  -1.220726  0  -0.406994  -0.703344  0  2.330055  0
O  O289  1  0.17300510  0.35187152  0.16081750  1  -1.220859  0  -0.40688  -0.703245  0  2.330245  0
O  O290  1  0.67300560  0.14812954  0.83918338  1  -1.220786  0  -0.406883  -0.703238  0  2.330104  0
O  O291  1  0.82698806  0.85187324  0.33918145  1  -1.220767  0  -0.406867  -0.703228  0  2.330186  0
O  O292  1  0.28342798  0.66387035  0.77605466  1  -1.199886  0  -0.388696  -0.653786  0  2.288205  0
O  O293  1  0.21657010  0.33613494  0.27605764  1  -1.199544  0  -0.388806  -0.653967  0  2.287662  0
O  O294  1  0.71656817  0.16386393  0.72394273  1  -1.199428  0  -0.388811  -0.653965  0  2.287802  0
O  O295  1  0.78342075  0.83613489  0.22394383  1  -1.199249  0  -0.388847  -0.653976  0  2.287808  0
O  O296  1  0.65930670  0.87438750  0.09297762  1  -1.18247  0  -0.399377  -0.654571  0  2.297966  0
O  O297  1  0.84070545  0.12562054  0.59298311  1  -1.182232  0  -0.399406  -0.654672  0  2.297943  0
O  O298  1  0.34070041  0.37438805  0.40701623  1  -1.181872  0  -0.399379  -0.654625  0  2.2981  0
O  O299  1  0.15929854  0.62561085  0.90702029  1  -1.182508  0  -0.399418  -0.654712  0  2.297814  0
O  O300  1  0.67235215  0.89634260  0.97524442  1  -1.212425  0  -0.413121  -0.684872  0  2.316916  0
O  O301  1  0.82764395  0.10366587  0.47525173  1  -1.212085  0  -0.413055  -0.684765  0  2.317094  0
O  O302  1  0.32764206  0.39633638  0.52474708  1  -1.212219  0  -0.413071  -0.684836  0  2.317085  0
O  O303  1  0.17235196  0.60365573  0.02475084  1  -1.21241  0  -0.413014  -0.684857  0  2.317106  0
O  O304  1  0.35271473  0.47396854  0.03284738  1  -1.205832  0  -0.41616  -0.696074  0  2.289942  0
O  O305  1  0.14728162  0.52603783  0.53284948  1  -1.205913  0  -0.416211  -0.696172  0  2.289828  0
O  O306  1  0.64728133  0.97396336  0.46714895  1  -1.205967  0  -0.416162  -0.696098  0  2.289715  0
O  O307  1  0.85271942  0.02603156  0.96715356  1  -1.206107  0  -0.416113  -0.696016  0  2.290041  0
O  O308  1  0.34620953  0.50928808  0.91697195  1  -1.202217  0  -0.402036  -0.670482  0  2.367423  0
O  O309  1  0.15378864  0.49071380  0.41697364  1  -1.202208  0  -0.401997  -0.670346  0  2.367545  0
O  O310  1  0.65378765  0.00929293  0.58302300  1  -1.202035  0  -0.402012  -0.67045  0  2.36741  0
O  O311  1  0.84621128  0.99071496  0.08302867  1  -1.202244  0  -0.402069  -0.670515  0  2.367334  0
O  O312  1  0.77124709  0.84978755  0.84632692  1  -1.235367  0  -0.622011  -0.850588  0  2.057369  0
O  O313  1  0.72875436  0.15021534  0.34632560  1  -1.235231  0  -0.621987  -0.85048  0  2.057406  0
O  O314  1  0.22875419  0.34978706  0.65367530  1  -1.23529  0  -0.62199  -0.850538  0  2.057359  0
O  O315  1  0.27124380  0.65021347  0.15367420  1  -1.235347  0  -0.62198  -0.850536  0  2.05741  0
O  O316  1  0.61139328  0.09658962  0.96605246  1  -1.280733  0  -0.644336  -0.855253  0  2.042509  0
O  O317  1  0.88860436  0.90341659  0.46605419  1  -1.280808  0  -0.644327  -0.855241  0  2.042653  0
O  O318  1  0.38860531  0.59658568  0.53394697  1  -1.280806  0  -0.644319  -0.855218  0  2.042538  0
O  O319  1  0.11139260  0.40341082  0.03394840  1  -1.280738  0  -0.644343  -0.855255  0  2.042456  0
