# generated using pymatgen
data_NiH12(C4O3)2
_symmetry_space_group_name_H-M   'P 1'
_cell_length_a   7.01034981
_cell_length_b   8.28361504
_cell_length_c   10.47935554
_cell_angle_alpha   109.61176732
_cell_angle_beta   109.50795973
_cell_angle_gamma   90.01732798
_symmetry_Int_Tables_number   1
_chemical_formula_structural   NiH12(C4O3)2
_chemical_formula_sum   'Ni2 H24 C16 O12'
_cell_volume   535.99147268
_cell_formula_units_Z   2
loop_
 _symmetry_equiv_pos_site_id
 _symmetry_equiv_pos_as_xyz
  1  'x, y, z'
loop_
 _atom_site_type_symbol
 _atom_site_label
 _atom_site_symmetry_multiplicity
 _atom_site_fract_x
 _atom_site_fract_y
 _atom_site_fract_z
 _atom_site_occupancy
 _atom_site_pbe_cm5_charge
 _atom_site_pbe_ddec_charge
 _atom_site_pbe_ddec_spin_density
 _atom_site_pbe_ddec_sum_bond_order
 _atom_site_pbe_magmom
Ni  Ni0  1  0.49999965  0.00000024  0.49999958  1  0.606955  0.862792  0.010294  2.323961  0.008
Ni  Ni1  1  0.00000235  0.49999917  0.50000217  1  0.60664  0.861993  0.009617  2.324162  0.008
H  H2  1  0.26612041  0.98903089  0.20176877  1  0.108744  0.133258  -0.000733  1.039926  -0.001
H  H3  1  0.06416476  0.51099588  0.79801611  1  0.108648  0.133608  -0.000734  1.039652  -0.001
H  H4  1  0.73388110  0.01097233  0.79822921  1  0.108731  0.133259  -0.000733  1.039922  -0.001
H  H5  1  0.93583358  0.48900613  0.20198849  1  0.108657  0.133594  -0.000734  1.039663  -0.001
H  H6  1  0.88058572  0.14288735  0.06834492  1  0.106851  0.102707  -0.000252  0.993006  0.0
H  H7  1  0.81191995  0.35732047  0.93180032  1  0.106796  0.10252  -0.000252  0.99192  0.0
H  H8  1  0.11940862  0.85710815  0.93165329  1  0.106852  0.102701  -0.000252  0.992957  0.0
H  H9  1  0.18807250  0.64267242  0.06819585  1  0.10679  0.102479  -0.000252  0.991951  0.0
H  H10  1  0.70445840  0.15030638  0.41705432  1  0.296995  0.333547  0.000207  1.009752  0.0
H  H11  1  0.28731629  0.34966465  0.58277954  1  0.296804  0.333013  0.000207  1.00968  0.0
H  H12  1  0.29554122  0.84969427  0.58294449  1  0.297004  0.333569  0.000207  1.009736  0.0
H  H13  1  0.71269070  0.65033469  0.41721771  1  0.296788  0.332982  0.000207  1.009637  0.0
H  H14  1  0.87215173  0.90935325  0.35487677  1  0.09449  0.097901  -3.5e-05  1.000416  0.0
H  H15  1  0.51702585  0.59051181  0.64482242  1  0.094867  0.09841  -3.6e-05  1.000781  0.0
H  H16  1  0.12784807  0.09064868  0.64512146  1  0.094476  0.097894  -3.5e-05  1.000406  0.0
H  H17  1  0.48298154  0.40949018  0.35518037  1  0.094866  0.098425  -3.6e-05  1.000796  0.0
H  H18  1  0.73799230  0.94883772  0.19167992  1  0.089986  0.087119  0.003521  1.013211  0.003
H  H19  1  0.54606615  0.55118643  0.80810057  1  0.089925  0.087071  0.003525  1.012751  0.003
H  H20  1  0.26201073  0.05116552  0.80832031  1  0.089972  0.087112  0.003522  1.013212  0.003
H  H21  1  0.45393537  0.44881682  0.19190028  1  0.089933  0.087071  0.003525  1.012761  0.003
H  H22  1  0.63166200  0.78624468  0.23532015  1  0.100461  0.105377  0.000617  1.002028  0.001
H  H23  1  0.39627484  0.71375890  0.76448301  1  0.100285  0.10568  0.000618  1.001902  0.001
H  H24  1  0.36834084  0.21375726  0.76467875  1  0.100476  0.10539  0.000617  1.002069  0.001
H  H25  1  0.60372460  0.28624047  0.23551638  1  0.100275  0.105641  0.000618  1.001943  0.001
C  C26  1  0.14661951  0.19226000  0.33713862  1  0.214357  0.616215  -0.002253  4.155072  -0.001
C  C27  1  0.80899149  0.30786242  0.66280324  1  0.214559  0.616742  -0.002244  4.156402  -0.001
C  C28  1  0.85338503  0.80774325  0.66286196  1  0.214383  0.616184  -0.002253  4.154994  -0.001
C  C29  1  0.19100815  0.69213825  0.33719749  1  0.214563  0.616788  -0.002244  4.156319  -0.001
C  C30  1  0.14419654  0.07065433  0.19649946  1  -0.090293  -0.236194  -0.003443  3.891125  -0.003
C  C31  1  0.94738846  0.42940345  0.80337696  1  -0.090089  -0.237761  -0.003438  3.891566  -0.003
C  C32  1  0.85579387  0.92933477  0.80350196  1  -0.090299  -0.23619  -0.003443  3.891027  -0.003
C  C33  1  0.05260116  0.57060111  0.19662541  1  -0.090098  -0.237717  -0.003437  3.89143  -0.003
C  C34  1  0.00123469  0.05920222  0.06852267  1  -0.076219  -0.032123  0.000303  4.013828  0.0
C  C35  1  0.93252939  0.44087349  0.93147821  1  -0.076126  -0.03107  0.000315  4.009966  0.0
C  C36  1  0.99876760  0.94079590  0.93147894  1  -0.076228  -0.032093  0.000303  4.01362  0.0
C  C37  1  0.06747218  0.55911951  0.06852572  1  -0.076128  -0.03105  0.000315  4.009895  0.0
C  C38  1  0.72058107  0.91402093  0.28005893  1  -0.151946  -0.113464  0.002663  3.898136  0.001
C  C39  1  0.44029797  0.58592492  0.71972961  1  -0.152172  -0.114403  0.002662  3.898931  0.001
C  C40  1  0.27942025  0.08598100  0.71993963  1  -0.151933  -0.11348  0.002663  3.898155  0.001
C  C41  1  0.55970487  0.41407703  0.28027025  1  -0.15215  -0.11438  0.002662  3.899003  0.001
O  O42  1  0.28107173  0.18651287  0.45354004  1  -0.296422  -0.548644  -0.01471  2.342487  -0.016
O  O43  1  0.82671782  0.31386478  0.54632286  1  -0.296945  -0.54903  -0.014785  2.343132  -0.016
O  O44  1  0.71893146  0.81349162  0.54645674  1  -0.29643  -0.54861  -0.014709  2.342394  -0.016
O  O45  1  0.17328579  0.68614237  0.45368138  1  -0.296974  -0.549073  -0.014784  2.343116  -0.016
O  O46  1  0.01552785  0.29990743  0.33664914  1  -0.304683  -0.535964  -0.03904  2.389328  -0.041
O  O47  1  0.67873034  0.19995217  0.66341801  1  -0.304425  -0.536023  -0.039033  2.390117  -0.041
O  O48  1  0.98447256  0.70008811  0.66335234  1  -0.304664  -0.535938  -0.039043  2.389277  -0.041
O  O49  1  0.32126228  0.80005234  0.33658024  1  -0.304401  -0.536063  -0.039033  2.390139  -0.041
O  O50  1  0.61183538  0.03671594  0.35227643  1  -0.39565  -0.440674  0.048163  2.543119  0.052
O  O51  1  0.25940855  0.46317086  0.64769618  1  -0.395588  -0.440225  0.048233  2.543314  0.052
O  O52  1  0.38816594  0.96328601  0.64772309  1  -0.395664  -0.440687  0.048164  2.543141  0.052
O  O53  1  0.74059827  0.53682722  0.35230261  1  -0.395597  -0.440187  0.048231  2.543205  0.052
