# generated using pymatgen
data_CuH20C18(NO)4
_symmetry_space_group_name_H-M   'P 1'
_cell_length_a   8.29458320
_cell_length_b   10.20276800
_cell_length_c   10.81645196
_cell_angle_alpha   85.29126720
_cell_angle_beta   89.94294726
_cell_angle_gamma   85.91274932
_symmetry_Int_Tables_number   1
_chemical_formula_structural   CuH20C18(NO)4
_chemical_formula_sum   'Cu2 H40 C36 N8 O8'
_cell_volume   909.95096498
_cell_formula_units_Z   2
loop_
 _symmetry_equiv_pos_site_id
 _symmetry_equiv_pos_as_xyz
  1  'x, y, z'
loop_
 _atom_site_type_symbol
 _atom_site_label
 _atom_site_symmetry_multiplicity
 _atom_site_fract_x
 _atom_site_fract_y
 _atom_site_fract_z
 _atom_site_occupancy
 _atom_site_hle17_ddec_charge
 _atom_site_hle17_ddec_spin_density
 _atom_site_hle17_ddec_sum_bond_order
 _atom_site_hle17_magmom
 _atom_site_hse06_10hf_ddec_charge
 _atom_site_hse06_10hf_ddec_spin_density
 _atom_site_hse06_10hf_ddec_sum_bond_order
 _atom_site_hse06_10hf_magmom
 _atom_site_hse06_ddec_charge
 _atom_site_hse06_ddec_spin_density
 _atom_site_hse06_ddec_sum_bond_order
 _atom_site_hse06_magmom
 _atom_site_pbe_cm5_charge
 _atom_site_pbe_ddec_charge
 _atom_site_pbe_ddec_spin_density
 _atom_site_pbe_ddec_sum_bond_order
 _atom_site_pbe_magmom
Cu  Cu0  1  0.03428323  0.50902019  0.99874907  1  0.843529  0.718111  1.759726  0.501  0.81204  0.801611  2.150848  0.612  0.90616  0.873922  2.077266  0.692  0.726713  0.751675  0.752124  2.2052  0.563
Cu  Cu1  1  0.53277366  0.00694346  0.49938327  1  0.830445  -0.715921  1.819173  -0.497  0.802762  -0.796349  2.207229  -0.604  0.891829  -0.868595  2.137904  -0.683  0.734591  0.746299  -0.747464  2.258552  -0.556
H  H2  1  0.81556888  0.07400856  0.07912064  1  0.126196  0.001265  0.962798  0.002  0.142995  0.001068  1.024086  0.001  0.143882  0.000718  1.025502  0.001  0.090935  0.14235  0.001365  1.023123  0.002
H  H3  1  0.83478691  0.12599419  0.91715808  1  0.13764  -0.000439  0.953935  -0.001  0.153919  -0.000122  1.017593  0.0  0.157389  -0.000101  1.015091  0.0  0.094455  0.151434  -0.000122  1.019378  0.0
H  H4  1  0.67012597  0.18922077  0.00040593  1  0.13334  -0.000488  0.946623  -0.001  0.152491  -0.00015  1.005814  0.0  0.154744  -0.000125  1.005377  0.0  0.096054  0.150851  -0.000158  1.006179  0.0
H  H5  1  0.28928277  0.86623429  0.07894603  1  0.14099  -0.000248  0.96602  0.0  0.154481  4.3e-05  1.032078  0.0  0.158543  2e-05  1.028744  0.0  0.090587  0.151553  6.9e-05  1.034466  0.0
H  H6  1  0.18630311  0.95693298  0.94902203  1  0.12841  0.000832  0.947903  0.001  0.147243  0.000747  1.006965  0.001  0.148306  0.000496  1.008101  0.001  0.093884  0.146507  0.001024  1.006139  0.001
H  H7  1  0.37057143  0.86453203  0.92685417  1  0.132561  -0.000219  0.950616  0.0  0.153913  -5e-05  1.008488  0.0  0.155473  -7.5e-05  1.00882  0.0  0.096873  0.15275  -2.4e-05  1.008331  0.0
H  H8  1  0.38835607  0.56095387  0.89848188  1  0.097841  -0.000114  0.945264  0.0  0.109528  -1.8e-05  1.004824  0.0  0.112168  -1.7e-05  1.001443  0.0  0.137268  0.107414  8e-06  1.007416  0.0
H  H9  1  0.41756000  0.17983389  0.76984442  1  0.127539  0.000567  0.970968  0.001  0.135134  0.000464  1.033793  0.001  0.1375  0.000344  1.033544  0.0  0.123507  0.133371  0.000538  1.034142  0.001
H  H10  1  0.12338170  0.22392378  0.89068100  1  0.099539  -5e-06  0.969022  0.0  0.111462  0.000208  1.025531  0.001  0.113344  0.000144  1.025061  0.0  0.118519  0.110026  0.000295  1.025942  0.001
H  H11  1  0.67042169  0.30710041  0.75876267  1  0.103567  0.000199  0.933436  0.0  0.118955  0.000168  0.993946  0.0  0.120849  0.000108  0.991953  0.0  0.118789  0.117615  0.000221  0.995394  0.0
H  H12  1  0.66337963  0.46942260  0.80608406  1  0.09538  -3.7e-05  0.918563  0.0  0.109986  0.0  0.979293  0.0  0.111657  -2.1e-05  0.977527  0.0  0.115507  0.108588  2.4e-05  0.980927  0.0
H  H13  1  0.57648512  0.66070599  0.66034183  1  0.097506  -0.000297  0.977219  0.0  0.10683  -0.000283  1.04091  0.0  0.11104  -0.000173  1.038272  0.0  0.096581  0.10407  -0.000404  1.04258  0.0
H  H14  1  0.51695956  0.74899658  0.44505378  1  0.085736  0.000415  0.97668  0.0  0.086478  0.000404  1.060821  0.0  0.089527  0.000393  1.056952  0.0  0.095978  0.083592  0.000418  1.064643  0.0
H  H15  1  0.49050884  0.35329215  0.33732501  1  0.097236  -0.000294  0.97602  0.0  0.106584  -0.000286  1.039879  0.0  0.110709  -0.000175  1.037363  0.0  0.096215  0.103836  -0.000409  1.041541  0.0
H  H16  1  0.54896837  0.26505360  0.55280133  1  0.086172  0.000409  0.977113  0.0  0.086752  0.0004  1.061303  0.0  0.089817  0.000389  1.057393  0.0  0.096157  0.083913  0.000414  1.065046  0.0
H  H17  1  0.40625646  0.54429137  0.19088157  1  0.093954  -5.8e-05  0.916159  0.0  0.108668  -1.8e-05  0.977459  0.0  0.110171  -3.4e-05  0.975842  0.0  0.115507  0.107367  1e-06  0.97905  0.0
H  H18  1  0.39645265  0.70644999  0.23876773  1  0.100964  0.000197  0.936642  0.0  0.116336  0.000159  0.997765  0.0  0.118203  0.000101  0.995606  0.0  0.117978  0.115023  0.00021  0.999305  0.0
H  H19  1  0.68101080  0.45551175  0.09894397  1  0.096969  -0.000101  0.948286  0.0  0.107696  -1e-06  1.009406  0.0  0.110199  -4e-06  1.00616  0.0  0.136678  0.105664  2.5e-05  1.011924  0.0
H  H20  1  0.94451222  0.79301800  0.11026612  1  0.101445  -7e-06  0.963529  0.0  0.11474  0.000211  1.017331  0.001  0.116567  0.000145  1.016955  0.0  0.119465  0.11334  0.000274  1.017703  0.001
H  H21  1  0.64967563  0.83512170  0.23050249  1  0.127745  0.00058  0.972688  0.001  0.134367  0.000474  1.036934  0.001  0.13675  0.000351  1.036619  0.0  0.123315  0.132598  0.000544  1.037341  0.001
H  H22  1  0.63321140  0.77412692  0.86474822  1  0.122907  0.000298  0.946892  0.0  0.140984  -3e-05  1.007347  0.0  0.143612  -1.5e-05  1.005921  0.0  0.088064  0.138886  -5.6e-05  1.008788  0.0
H  H23  1  0.68018324  0.92036778  0.93464531  1  0.12698  -0.00073  0.965721  -0.001  0.146524  -0.000654  1.024661  -0.001  0.147495  -0.000426  1.026106  -0.001  0.092606  0.145796  -0.000842  1.023674  -0.001
H  H24  1  0.82838481  0.83321926  0.84811352  1  0.155194  0.000153  0.957411  0.0  0.172406  -1.2e-05  1.019421  0.0  0.174908  2.5e-05  1.018891  0.0  0.099194  0.170625  -4.5e-05  1.019778  0.0
H  H25  1  0.36574624  0.09358277  0.06622294  1  0.124563  -0.000871  0.969679  -0.001  0.143975  -0.000765  1.029673  -0.001  0.144811  -0.000504  1.031238  -0.001  0.091205  0.143357  -0.000978  1.028574  -0.001
H  H26  1  0.43641103  0.23564509  0.13060528  1  0.123431  0.000333  0.946921  0.0  0.141268  -8e-06  1.007755  0.0  0.143756  1e-06  1.006591  0.0  0.088325  0.13929  -3e-05  1.008987  0.0
H  H27  1  0.23638137  0.19070450  0.15914001  1  0.155304  0.000261  0.953491  0.0  0.17162  4.9e-05  1.01679  0.0  0.17415  6.4e-05  1.016057  0.0  0.099261  0.169774  3.7e-05  1.017358  0.0
H  H28  1  0.82299739  0.78374857  0.54045921  1  0.104485  2.6e-05  0.949873  0.0  0.114216  -3.3e-05  1.010644  0.0  0.116232  -2.1e-05  1.008947  0.0  0.138867  0.112572  -4.7e-05  1.012001  0.0
H  H29  1  0.08121350  0.00387819  0.26780605  1  0.126359  -0.000507  0.955908  -0.001  0.138335  -0.000408  1.012906  -0.001  0.141072  -0.000312  1.01157  0.0  0.126949  0.136291  -0.000483  1.01398  -0.001
H  H30  1  0.77701943  0.13102499  0.29844992  1  0.114611  9e-06  0.958566  0.0  0.125056  -0.000168  1.014734  -0.001  0.127877  -0.000112  1.013047  0.0  0.120592  0.122817  -0.000219  1.016222  -0.001
H  H31  1  0.19475124  0.77365506  0.33524292  1  0.095443  -0.000178  0.931921  0.0  0.11137  -0.000124  0.992015  0.0  0.112664  -8.7e-05  0.990676  0.0  0.117011  0.110389  -0.000154  0.99309  0.0
H  H32  1  0.21232464  0.80414110  0.49292632  1  0.084284  0.000137  0.943747  0.0  0.096565  9.3e-05  1.012393  0.0  0.096643  8.4e-05  1.012932  0.0  0.109793  0.096068  0.0001  1.012664  0.0
H  H33  1  0.06174434  0.57953306  0.27526664  1  0.094331  -0.000191  0.972461  0.0  0.102421  -0.000175  1.040668  0.0  0.104993  -0.000166  1.039341  0.0  0.098579  0.10045  -0.00017  1.04183  0.0
H  H34  1  0.97136011  0.35793562  0.33618675  1  0.108501  2.1e-05  0.966178  0.0  0.117055  7e-06  1.031001  0.0  0.120201  1e-06  1.029368  0.0  0.099768  0.114682  1.7e-05  1.032442  0.0
H  H35  1  0.00429555  0.43483501  0.72167292  1  0.095495  -0.000174  0.969892  0.0  0.103555  -0.000161  1.037746  0.0  0.106179  -0.000153  1.036398  0.0  0.098651  0.101568  -0.000157  1.03888  0.0
H  H36  1  0.09450284  0.65649608  0.66073621  1  0.107993  2e-05  0.967691  0.0  0.116952  8e-06  1.031891  0.0  0.120028  2e-06  1.030367  0.0  0.09999  0.114592  1.8e-05  1.033328  0.0
H  H37  1  0.87036591  0.24103897  0.66138960  1  0.094215  -0.000171  0.934058  0.0  0.110869  -0.000118  0.993682  0.0  0.112096  -8.2e-05  0.992436  0.0  0.116848  0.10992  -0.000147  0.994735  0.0
H  H38  1  0.85334399  0.21038010  0.50371369  1  0.084701  0.000133  0.943441  0.0  0.097026  8.8e-05  1.012103  0.0  0.097003  8e-05  1.012808  0.0  0.109995  0.09658  9.4e-05  1.012298  0.0
H  H39  1  0.24471880  0.23148373  0.45894292  1  0.102951  2.6e-05  0.95367  0.0  0.112522  -3.2e-05  1.014915  0.0  0.114512  -1.9e-05  1.013224  0.0  0.138448  0.110986  -4.7e-05  1.016137  0.0
H  H40  1  0.28584480  0.88237214  0.69863449  1  0.113105  -4e-06  0.959349  0.0  0.1223  -0.000176  1.018049  -0.001  0.124989  -0.000118  1.016588  0.0  0.119895  0.120153  -0.000228  1.019404  -0.001
H  H41  1  0.98122059  0.00970479  0.72682309  1  0.123293  -0.000506  0.962379  -0.001  0.133676  -0.000408  1.022917  -0.001  0.136493  -0.000313  1.021332  0.0  0.124881  0.13157  -0.000481  1.024191  -0.001
C  C42  1  0.89453130  0.27080015  0.04262390  1  0.702081  -0.003877  3.883487  -0.008  0.670589  -0.000251  4.184771  -0.003  0.705797  -0.000735  4.179692  -0.003  0.189616  0.646849  0.000229  4.187113  -0.003
C  C43  1  0.79927352  0.15724201  0.00865364  1  -0.452003  0.009856  3.661739  0.01  -0.521866  0.006014  3.887015  0.006  -0.52904  0.004151  3.889723  0.004  -0.251776  -0.516578  0.00743  3.884857  0.007
C  C44  1  0.16687405  0.74769822  0.95264513  1  0.702601  -0.004202  3.878515  -0.008  0.671143  -0.000472  4.180454  -0.003  0.706567  -0.000929  4.175204  -0.003  0.188941  0.647275  -4e-06  4.182896  -0.003
C  C45  1  0.25795963  0.86585910  0.98057144  1  -0.455905  0.010057  3.658056  0.01  -0.526803  0.0062  3.8838  0.007  -0.534171  0.00427  3.886602  0.005  -0.252282  -0.521405  0.007577  3.881629  0.008
C  C46  1  0.35414966  0.46375443  0.88115288  1  0.153528  -0.004544  3.662054  -0.004  0.095632  -0.000827  3.928117  -0.001  0.111304  -0.001554  3.942279  -0.002  0.139796  0.085779  -0.00023  3.918351  0.0
C  C47  1  0.36450313  0.26417385  0.81403271  1  -0.058393  0.003555  3.644972  0.004  -0.09786  0.002047  3.8988  0.002  -0.096355  0.001833  3.917123  0.002  0.004774  -0.098676  0.002181  3.886284  0.002
C  C48  1  0.22125235  0.28762108  0.87460649  1  0.003084  -3.4e-05  3.754813  0.0  -0.025517  0.000968  4.021872  0.001  -0.022032  0.000315  4.04296  0.0  -0.000989  -0.027593  0.001406  4.007634  0.001
C  C49  1  0.59842565  0.40170695  0.75405448  1  -0.050397  0.001075  3.63534  0.001  -0.11795  0.000879  3.882687  0.001  -0.112905  0.000639  3.890971  0.001  -0.046479  -0.121173  0.001096  3.87695  0.001
C  C50  1  0.56675603  0.45609273  0.62162467  1  0.066298  4.5e-05  3.758499  0.0  0.084834  1.4e-05  3.995565  0.0  0.083231  -5e-06  4.021746  0.0  -0.015036  0.086066  6.7e-05  3.977307  0.0
C  C51  1  0.55772230  0.59214610  0.59033921  1  -0.11663  -0.000169  3.74621  0.0  -0.134603  -0.000112  3.989448  0.0  -0.13786  -3.2e-05  4.01112  0.0  -0.094746  -0.132221  -0.000186  3.974016  0.0
C  C52  1  0.52464439  0.64264443  0.46865107  1  -0.10107  0.000211  3.732781  0.0  -0.119083  0.000228  3.981643  0.0  -0.121491  0.000215  4.004622  0.0  -0.090749  -0.117025  0.000248  3.9661  0.0
C  C53  1  0.50025017  0.55793307  0.37609451  1  0.065386  9.5e-05  3.757464  0.0  0.084519  1e-05  3.994418  0.0  0.082965  -1e-06  4.020561  0.0  -0.014958  0.085724  6.5e-05  3.976157  0.0
C  C54  1  0.50907371  0.42184233  0.40736867  1  -0.115344  -0.000244  3.745652  0.0  -0.133213  -0.000115  3.988424  0.0  -0.136443  -3.9e-05  4.010131  0.0  -0.094041  -0.130839  -0.000194  3.972993  0.0
C  C55  1  0.54180937  0.37138767  0.52915413  1  -0.102007  0.000277  3.735996  0.0  -0.119746  0.000232  3.984764  0.0  -0.12224  0.000222  4.007882  0.0  -0.090322  -0.117647  0.000256  3.96911  0.0
C  C56  1  0.46960723  0.61244538  0.24353830  1  -0.046009  0.001025  3.633848  0.001  -0.114559  0.000842  3.882808  0.001  -0.109347  0.000612  3.891112  0.001  -0.045073  -0.117915  0.001043  3.877047  0.001
C  C57  1  0.71485884  0.55254960  0.11707431  1  0.154634  -0.004691  3.661799  -0.004  0.097761  -0.000902  3.927138  -0.001  0.11349  -0.001626  3.941377  -0.002  0.139964  0.087907  -0.000316  3.917303  0.0
C  C58  1  0.84687796  0.72889450  0.12539906  1  0.005264  4e-05  3.750793  0.0  -0.023569  0.000995  4.018173  0.001  -0.020063  0.000341  4.03931  0.0  -0.000483  -0.025668  0.001445  4.00389  0.001
C  C59  1  0.70329046  0.75133698  0.18581420  1  -0.05858  0.00357  3.64141  0.004  -0.097395  0.002071  3.89499  0.002  -0.095861  0.00185  3.913353  0.002  0.004698  -0.098235  0.002211  3.882407  0.002
C  C60  1  0.64809403  0.94840610  0.73640231  1  0.72003  0.004574  3.857993  0.008  0.686802  0.000768  4.15893  0.004  0.722937  0.00123  4.151955  0.004  0.195179  0.662378  0.0003  4.162646  0.004
C  C61  1  0.69863403  0.86400610  0.85332323  1  -0.46444  -0.010347  3.67856  -0.011  -0.538017  -0.006582  3.906935  -0.007  -0.546057  -0.004572  3.910771  -0.005  -0.254685  -0.532085  -0.008053  3.90417  -0.008
C  C62  1  0.41633033  0.06543973  0.26227259  1  0.721911  0.004515  3.855901  0.008  0.689418  0.000697  4.154777  0.004  0.725532  0.001167  4.147978  0.004  0.195635  0.665047  0.000215  4.158292  0.004
C  C63  1  0.36212890  0.15128625  0.14716424  1  -0.461947  -0.01031  3.671649  -0.011  -0.534926  -0.006552  3.899597  -0.007  -0.542861  -0.004552  3.903721  -0.005  -0.254088  -0.529048  -0.008003  3.896547  -0.008
C  C64  1  0.84998958  0.86171086  0.47132763  1  0.161892  0.004757  3.650385  0.004  0.104792  0.000894  3.916653  0.001  0.120567  0.00162  3.930738  0.002  0.142758  0.094811  0.000329  3.907013  0.0
C  C65  1  0.98126154  0.97833021  0.32737184  1  -0.058357  -0.003491  3.651447  -0.003  -0.098853  -0.00202  3.906152  -0.002  -0.097106  -0.001777  3.923654  -0.002  0.004489  -0.099737  -0.002193  3.89407  -0.002
C  C66  1  0.83117296  0.04024077  0.34412492  1  -0.006703  1.1e-05  3.752361  0.0  -0.036024  -0.000897  4.022193  -0.001  -0.03213  -0.000233  4.041119  0.0  -0.00521  -0.038227  -0.001363  4.009464  -0.001
C  C67  1  0.13158035  0.76964068  0.42418322  1  -0.041552  -0.000877  3.640921  -0.001  -0.110081  -0.000657  3.888656  -0.001  -0.105266  -0.000499  3.899224  -0.001  -0.048062  -0.113317  -0.000804  3.882049  -0.001
C  C68  1  0.08344127  0.63316305  0.46306538  1  0.056886  -0.000128  3.77952  0.0  0.077512  -1.2e-05  4.017462  0.0  0.076254  1.4e-05  4.042766  0.0  -0.01603  0.078475  -4.9e-05  4.000289  0.0
C  C69  1  0.04863489  0.54787750  0.37326190  1  -0.102743  -8.7e-05  3.739692  0.0  -0.123972  -0.000104  3.986944  0.0  -0.126725  -9.6e-05  4.01012  0.0  -0.091654  -0.122013  -0.000116  3.971365  0.0
C  C70  1  0.99762126  0.42291743  0.40792345  1  -0.116568  -0.000102  3.733669  0.0  -0.134085  -6.2e-05  3.976083  0.0  -0.137064  -5.2e-05  3.997806  0.0  -0.092245  -0.13201  -7.7e-05  3.961446  0.0
C  C71  1  0.98212108  0.38142454  0.53380175  1  0.059103  -0.000112  3.778963  0.0  0.079763  -1e-05  4.016952  0.0  0.078637  9e-06  4.042055  0.0  -0.015403  0.080631  -5e-05  3.99994  0.0
C  C72  1  0.01714383  0.46659518  0.62363499  1  -0.10416  -0.000107  3.735931  0.0  -0.125067  -0.000101  3.983428  0.0  -0.127823  -8.8e-05  4.006385  0.0  -0.091921  -0.123124  -0.000111  3.968027  0.0
C  C73  1  0.06810850  0.59157646  0.58899590  1  -0.114992  -8.2e-05  3.730818  0.0  -0.132563  -5.9e-05  3.972998  0.0  -0.135426  -5.4e-05  3.994732  0.0  -0.092503  -0.130565  -7.6e-05  3.958429  0.0
C  C74  1  0.93383772  0.24499419  0.57258350  1  -0.041316  -0.000886  3.641067  -0.001  -0.110055  -0.000657  3.888223  -0.001  -0.105195  -0.000499  3.898729  -0.001  -0.048376  -0.113318  -0.000804  3.881641  -0.001
C  C75  1  0.21631084  0.15311688  0.52719388  1  0.161765  0.00475  3.650962  0.004  0.105049  0.00088  3.917414  0.001  0.120891  0.001612  3.931417  0.002  0.142748  0.094971  0.00031  3.907817  0.0
C  C76  1  0.23275648  0.97361552  0.65314705  1  -0.004688  5.5e-05  3.749604  0.0  -0.03305  -0.000906  4.019154  -0.001  -0.029246  -0.000238  4.0386  0.0  -0.005171  -0.035188  -0.001375  4.006058  -0.001
C  C77  1  0.08257475  0.03567589  0.66896131  1  -0.059274  -0.003592  3.654056  -0.004  -0.099641  -0.002047  3.909244  -0.002  -0.097971  -0.001797  3.926938  -0.002  0.003796  -0.100462  -0.002222  3.89702  -0.002
N  N78  1  0.21598776  0.41240461  0.91650750  1  -0.362787  0.06741  3.343429  0.082  -0.318272  0.049158  3.66006  0.064  -0.34982  0.041726  3.678901  0.057  -0.375784  -0.2988  0.053002  3.649146  0.066
N  N79  1  0.44703210  0.37644433  0.81951958  1  -0.049062  0.00094  3.568102  0.001  0.046503  0.000909  3.78176  0.001  0.031838  0.000636  3.807145  0.001  -0.237092  0.056139  0.001125  3.764334  0.001
N  N80  1  0.62135848  0.63896526  0.17917250  1  -0.046977  0.000953  3.560939  0.001  0.049271  0.000899  3.773286  0.001  0.034685  0.000626  3.79848  0.001  -0.236727  0.058886  0.001111  3.755944  0.001
N  N81  1  0.85291109  0.60452649  0.08249074  1  -0.365685  0.067809  3.344782  0.083  -0.321605  0.04934  3.661921  0.064  -0.35328  0.041903  3.680975  0.057  -0.376309  -0.302052  0.053192  3.650833  0.066
N  N82  1  0.75079886  0.96650508  0.43442399  1  -0.373462  -0.068248  3.373695  -0.084  -0.330996  -0.0494  3.695603  -0.064  -0.361705  -0.04227  3.713525  -0.057  -0.386717  -0.31202  -0.053202  3.68518  -0.066
N  N83  1  0.99035272  0.86560089  0.40790506  1  -0.052964  -0.00138  3.55525  -0.002  0.043406  -0.001139  3.767583  -0.001  0.028342  -0.00083  3.793738  -0.001  -0.236094  0.053308  -0.001356  3.749873  -0.002
N  N84  1  0.07494936  0.14900985  0.58925494  1  -0.052125  -0.001356  3.555873  -0.002  0.043953  -0.001131  3.768715  -0.001  0.028918  -0.000822  3.794795  -0.001  -0.236323  0.053824  -0.001349  3.751086  -0.002
N  N85  1  0.31466605  0.04779666  0.56418178  1  -0.373469  -0.068297  3.373527  -0.084  -0.331313  -0.049436  3.694772  -0.064  -0.361993  -0.042315  3.712662  -0.057  -0.38709  -0.312359  -0.053225  3.684397  -0.067
O  O86  1  0.89005330  0.37035506  0.95867346  1  -0.628543  0.10781  2.013345  0.139  -0.605035  0.070156  2.303112  0.099  -0.649536  0.054946  2.295602  0.082  -0.344032  -0.575208  0.079539  2.308333  0.108
O  O87  1  0.96942838  0.26647418  0.14332544  1  -0.633156  0.000276  1.897056  0.002  -0.59718  -0.000136  2.122518  0.001  -0.621587  -0.000913  2.113361  0.0  -0.328956  -0.580251  0.000662  2.128327  0.002
O  O88  1  0.17789961  0.64921393  0.03762463  1  -0.623321  0.108805  2.005721  0.141  -0.598702  0.070971  2.291191  0.1  -0.643253  0.055438  2.283759  0.083  -0.339845  -0.568857  0.080547  2.296413  0.11
O  O89  1  0.08919715  0.74795419  0.85347008  1  -0.637211  0.000171  1.896034  0.002  -0.602311  -0.000221  2.123701  0.001  -0.627223  -0.000988  2.114518  0.0  -0.331755  -0.585077  0.000539  2.129599  0.002
O  O90  1  0.58304554  0.88666644  0.65104290  1  -0.616695  -0.108322  2.036807  -0.14  -0.581  -0.072855  2.309443  -0.103  -0.625119  -0.057487  2.303143  -0.086  -0.332537  -0.551372  -0.082097  2.313665  -0.112
O  O91  1  0.67235078  0.06886043  0.72447482  1  -0.656841  -0.000379  1.899347  -0.002  -0.624599  6e-06  2.141354  -0.001  -0.649678  0.000821  2.13151  0.0  -0.337717  -0.607418  -0.000703  2.147972  -0.002
O  O92  1  0.48127144  0.12692434  0.34786313  1  -0.615428  -0.108742  2.036884  -0.141  -0.580141  -0.073142  2.30919  -0.103  -0.624313  -0.057728  2.302839  -0.086  -0.331853  -0.550496  -0.082376  2.313432  -0.112
O  O93  1  0.39484314  0.94441949  0.27292991  1  -0.656512  -0.000467  1.903617  -0.002  -0.623353  -3e-05  2.143458  -0.001  -0.648312  0.000797  2.133157  0.0  -0.33576  -0.606296  -0.00074  2.150408  -0.002
