# generated using pymatgen
data_MoH9C7(NO)3
_symmetry_space_group_name_H-M   'P 1'
_cell_length_a   12.28036531
_cell_length_b   12.06583310
_cell_length_c   14.83168475
_cell_angle_alpha   89.99967306
_cell_angle_beta   89.99995234
_cell_angle_gamma   89.99991235
_symmetry_Int_Tables_number   1
_chemical_formula_structural   MoH9C7(NO)3
_chemical_formula_sum   'Mo8 H72 C56 N24 O24'
_cell_volume   2197.65282585
_cell_formula_units_Z   8
loop_
 _symmetry_equiv_pos_site_id
 _symmetry_equiv_pos_as_xyz
  1  'x, y, z'
loop_
 _atom_site_type_symbol
 _atom_site_label
 _atom_site_symmetry_multiplicity
 _atom_site_fract_x
 _atom_site_fract_y
 _atom_site_fract_z
 _atom_site_occupancy
 _atom_site_pbe_bader_charge
 _atom_site_pbe_bader_spin_density
 _atom_site_pbe_cm5_charge
 _atom_site_pbe_ddec_charge
 _atom_site_pbe_ddec_spin_density
 _atom_site_pbe_ddec_sum_bond_order
 _atom_site_pbe_magmom
Mo  Mo0  1  0.90691798  0.59866390  0.06667313  1  2.600363  0  1.53633  2.019757  0  4.84506  0
Mo  Mo1  1  0.40691653  0.40133555  0.43332597  1  2.600393  0  1.536313  2.019764  0  4.845109  0
Mo  Mo2  1  0.59308400  0.90133440  0.56667305  1  2.600548  0  1.536308  2.019644  0  4.845157  0
Mo  Mo3  1  0.09308382  0.09866368  0.93332662  1  2.600399  0  1.536285  2.019659  0  4.845083  0
Mo  Mo4  1  0.09308359  0.40133072  0.93332726  1  2.600313  0  1.536248  2.019633  0  4.845118  0
Mo  Mo5  1  0.59308341  0.59866653  0.56667308  1  2.600324  0  1.53631  2.019645  0  4.845089  0
Mo  Mo6  1  0.40691676  0.09866851  0.43332869  1  2.600364  0  1.536222  2.019568  0  4.845272  0
Mo  Mo7  1  0.90691693  0.90133177  0.06667310  1  2.600322  0  1.53627  2.019569  0  4.845223  0
H  H8  1  0.95286983  0.57421946  0.82266955  1  0.257686  0  0.145172  0.1325  0  1.027069  0
H  H9  1  0.45286453  0.42578220  0.67733054  1  0.257687  0  0.145184  0.132397  0  1.027207  0
H  H10  1  0.54712700  0.92578201  0.32266904  1  0.257698  0  0.145146  0.132437  0  1.027076  0
H  H11  1  0.04713445  0.07421469  0.17733166  1  0.25765  0  0.145183  0.132327  0  1.027174  0
H  H12  1  0.04712685  0.42577516  0.17732882  1  0.257345  0  0.145159  0.132502  0  1.027189  0
H  H13  1  0.54713297  0.57421905  0.32266985  1  0.257634  0  0.145176  0.132489  0  1.027068  0
H  H14  1  0.45287457  0.07422339  0.67733001  1  0.257729  0  0.145167  0.132467  0  1.027153  0
H  H15  1  0.95286794  0.92577993  0.82267076  1  0.257758  0  0.145154  0.132452  0  1.027142  0
H  H16  1  0.29434720  0.57408495  0.56728611  1  0.209108  0  0.146395  0.131962  0  1.023754  0
H  H17  1  0.79434773  0.42591530  0.93271544  1  0.209083  0  0.146377  0.131862  0  1.02376  0
H  H18  1  0.20565276  0.92591578  0.06728481  1  0.209104  0  0.146371  0.131865  0  1.023716  0
H  H19  1  0.70565219  0.07408482  0.43271374  1  0.209147  0  0.146381  0.131871  0  1.023752  0
H  H20  1  0.70565437  0.42591630  0.43271428  1  0.209062  0  0.146386  0.131871  0  1.023731  0
H  H21  1  0.20565465  0.57408346  0.06728361  1  0.209022  0  0.146381  0.131891  0  1.023683  0
H  H22  1  0.79434474  0.07408465  0.93271625  1  0.209013  0  0.146387  0.131916  0  1.023787  0
H  H23  1  0.29434775  0.92591395  0.56728462  1  0.209112  0  0.146412  0.132035  0  1.023732  0
H  H24  1  0.13930606  0.67594490  0.71420585  1  0.0681  0  0.102978  0.11791  0  0.972613  0
H  H25  1  0.63930689  0.32405559  0.78579445  1  0.068192  0  0.102994  0.117959  0  0.972591  0
H  H26  1  0.36069212  0.82405396  0.21420492  1  0.068227  0  0.102988  0.117935  0  0.972554  0
H  H27  1  0.86069480  0.17594556  0.28579623  1  0.068151  0  0.102962  0.117924  0  0.972557  0
H  H28  1  0.86069306  0.32405469  0.28579184  1  0.068017  0  0.102965  0.117908  0  0.97258  0
H  H29  1  0.36069305  0.67594566  0.21420594  1  0.068216  0  0.102985  0.117922  0  0.972579  0
H  H30  1  0.63930700  0.17594729  0.78579412  1  0.068137  0  0.102984  0.117941  0  0.972515  0
H  H31  1  0.13930514  0.82405320  0.71420416  1  0.068166  0  0.102968  0.117924  0  0.972541  0
H  H32  1  0.11985294  0.92893253  0.56674057  1  0.03072  0  0.09797  0.101891  0  0.999676  0
H  H33  1  0.61984993  0.07106551  0.93325908  1  0.030618  0  0.09797  0.101877  0  0.999638  0
H  H34  1  0.38015028  0.57106489  0.06674080  1  0.030602  0  0.097988  0.101914  0  0.999654  0
H  H35  1  0.88014999  0.42893626  0.43325697  1  0.030789  0  0.097966  0.101889  0  0.999599  0
H  H36  1  0.88014944  0.07106707  0.43325982  1  0.030745  0  0.097964  0.101895  0  0.999655  0
H  H37  1  0.38015164  0.92893325  0.06674266  1  0.030853  0  0.097967  0.101886  0  0.999678  0
H  H38  1  0.61984885  0.42893388  0.93325757  1  0.030839  0  0.097975  0.101923  0  0.999686  0
H  H39  1  0.11984833  0.57106499  0.56674207  1  0.030827  0  0.097969  0.101916  0  0.999653  0
H  H40  1  0.10871576  0.85551650  0.46365940  1  0.048423  0  0.10159  0.113224  0  0.965483  0
H  H41  1  0.60871385  0.14448258  0.03634125  1  0.048442  0  0.101581  0.113198  0  0.965529  0
H  H42  1  0.39128706  0.64448309  0.96365896  1  0.048452  0  0.101589  0.113224  0  0.965531  0
H  H43  1  0.89128484  0.35551949  0.53634050  1  0.048446  0  0.101578  0.113208  0  0.965512  0
H  H44  1  0.89128337  0.14448558  0.53634166  1  0.048423  0  0.101577  0.113186  0  0.965497  0
H  H45  1  0.39128609  0.85551535  0.96365982  1  0.048464  0  0.101581  0.113215  0  0.965528  0
H  H46  1  0.60871450  0.35551733  0.03634076  1  0.048446  0  0.101578  0.113215  0  0.965543  0
H  H47  1  0.10871510  0.64448093  0.46365854  1  0.04844  0  0.101585  0.113236  0  0.965495  0
H  H48  1  0.92679232  0.92783974  0.51558427  1  0.059891  0  0.099222  0.077587  0  0.991014  0
H  H49  1  0.42678806  0.07216362  0.98441516  1  0.059968  0  0.099228  0.077639  0  0.990918  0
H  H50  1  0.57321134  0.57216306  0.01558470  1  0.060058  0  0.099219  0.077626  0  0.990911  0
H  H51  1  0.07321061  0.42783774  0.48441529  1  0.059948  0  0.099222  0.077611  0  0.990925  0
H  H52  1  0.07320844  0.07216400  0.48441881  1  0.060053  0  0.099227  0.077614  0  0.990979  0
H  H53  1  0.57320944  0.92783597  0.01558321  1  0.060053  0  0.099236  0.077635  0  0.99097  0
H  H54  1  0.42678942  0.42783736  0.98441569  1  0.060039  0  0.099224  0.077641  0  0.990892  0
H  H55  1  0.92678770  0.57216600  0.51558307  1  0.060076  0  0.099248  0.077662  0  0.990928  0
H  H56  1  0.96751741  0.92904087  0.67877003  1  0.036648  0  0.097149  0.106294  0  0.98805  0
H  H57  1  0.46751413  0.07096077  0.82123005  1  0.036701  0  0.097136  0.106242  0  0.987937  0
H  H58  1  0.53248445  0.57095912  0.17876982  1  0.036662  0  0.097146  0.106279  0  0.988029  0
H  H59  1  0.03248633  0.42904091  0.32122885  1  0.03654  0  0.097122  0.106228  0  0.987977  0
H  H60  1  0.03248498  0.07095955  0.32123373  1  0.036639  0  0.097136  0.106301  0  0.987932  0
H  H61  1  0.53248500  0.92904048  0.17876765  1  0.036569  0  0.097148  0.106268  0  0.987932  0
H  H62  1  0.46751386  0.42904296  0.82123124  1  0.036602  0  0.097138  0.106278  0  0.987973  0
H  H63  1  0.96751361  0.57095951  0.67876951  1  0.036565  0  0.097131  0.10621  0  0.987974  0
H  H64  1  0.84402685  0.85645095  0.65585174  1  0.034975  0  0.102608  0.118367  0  0.988292  0
H  H65  1  0.34402506  0.14355420  0.84414775  1  0.034941  0  0.102638  0.118374  0  0.988293  0
H  H66  1  0.65597341  0.64355169  0.15585246  1  0.03495  0  0.102648  0.118414  0  0.988273  0
H  H67  1  0.15597375  0.35644733  0.34414748  1  0.034927  0  0.102637  0.11835  0  0.988292  0
H  H68  1  0.15597228  0.14355196  0.34415000  1  0.03497  0  0.102625  0.11837  0  0.9883  0
H  H69  1  0.65597406  0.85644706  0.15585197  1  0.034951  0  0.102649  0.118395  0  0.988269  0
H  H70  1  0.34402572  0.35644791  0.84414793  1  0.034938  0  0.102647  0.118376  0  0.988281  0
H  H71  1  0.84402538  0.64355310  0.65585156  1  0.034927  0  0.102644  0.118363  0  0.988304  0
H  H72  1  0.93004891  0.75000317  0.42896607  1  0.038585  0  0.093284  0.095419  0  0.970054  0
H  H73  1  0.43004887  0.24999956  0.07103436  1  0.038622  0  0.093291  0.095428  0  0.970014  0
H  H74  1  0.56995188  0.75000003  0.92896603  1  0.038627  0  0.093296  0.095422  0  0.970008  0
H  H75  1  0.06995021  0.25000140  0.57103500  1  0.038601  0  0.093282  0.095416  0  0.970044  0
H  H76  1  0.82376865  0.75000380  0.50993398  1  0.040408  0  0.095484  0.110131  0  1.007962  0
H  H77  1  0.32376737  0.25000055  0.99006620  1  0.040387  0  0.095493  0.110122  0  1.007964  0
H  H78  1  0.67623176  0.74999987  0.00993419  1  0.040388  0  0.095472  0.110099  0  1.007965  0
H  H79  1  0.17622966  0.25000077  0.49006641  1  0.040427  0  0.095484  0.110155  0  1.007911  0
C  C80  1  0.94152889  0.65973939  0.84336963  1  0.926414  0  0.170697  0.123634  0  3.834752  0
C  C81  1  0.44152455  0.34026561  0.65663047  1  0.92631  0  0.170724  0.123819  0  3.834738  0
C  C82  1  0.55847118  0.84025779  0.34337086  1  0.926592  0  0.17077  0.123825  0  3.834779  0
C  C83  1  0.05847526  0.15973392  0.15663185  1  0.926364  0  0.1708  0.124088  0  3.834552  0
C  C84  1  0.05847024  0.34025606  0.15662873  1  0.926952  0  0.170656  0.123592  0  3.83509  0
C  C85  1  0.55847295  0.65974145  0.34337127  1  0.926593  0  0.170696  0.123649  0  3.834835  0
C  C86  1  0.44153039  0.15973932  0.65663021  1  0.926452  0  0.170721  0.123722  0  3.834724  0
C  C87  1  0.94152794  0.84026070  0.84336989  1  0.926369  0  0.17069  0.123636  0  3.834774  0
C  C88  1  0.32061264  0.65970684  0.57315375  1  0.961199  0  0.168991  0.120438  0  3.837976  0
C  C89  1  0.82061493  0.34029005  0.92684576  1  0.961103  0  0.169059  0.120627  0  3.837887  0
C  C90  1  0.17938487  0.84028721  0.07315421  1  0.961107  0  0.168977  0.120484  0  3.837905  0
C  C91  1  0.67938581  0.15971011  0.42684504  1  0.961047  0  0.16904  0.12058  0  3.8379  0
C  C92  1  0.67938567  0.34029109  0.42684529  1  0.961075  0  0.169051  0.120572  0  3.837908  0
C  C93  1  0.17938582  0.65970954  0.07315328  1  0.961315  0  0.169043  0.120523  0  3.837948  0
C  C94  1  0.82061344  0.15970824  0.92684753  1  0.961302  0  0.169053  0.120542  0  3.837897  0
C  C95  1  0.32061169  0.84029363  0.57315400  1  0.961222  0  0.168949  0.12031  0  3.837705  0
C  C96  1  0.97994225  0.74999972  0.69161659  1  0.323326  0  0.093618  0.245107  0  3.773369  0
C  C97  1  0.47994278  0.25000190  0.80838281  1  0.323577  0  0.093651  0.245081  0  3.773587  0
C  C98  1  0.52005634  0.75000018  0.19161624  1  0.323541  0  0.093628  0.244978  0  3.773674  0
C  C99  1  0.02006095  0.24999904  0.30838380  1  0.323722  0  0.093668  0.245022  0  3.773646  0
C  C100  1  0.10474761  0.74999795  0.68152431  1  -0.069184  0  -0.152082  -0.310211  0  3.836389  0
C  C101  1  0.60474770  0.25000177  0.81847400  1  -0.06928  0  -0.152084  -0.310201  0  3.836267  0
C  C102  1  0.39525143  0.74999948  0.18152572  1  -0.069399  0  -0.152076  -0.31011  0  3.836291  0
C  C103  1  0.89525152  0.25000247  0.31847541  1  -0.069063  0  -0.152055  -0.310105  0  3.836218  0
C  C104  1  0.13314665  0.74999746  0.58028766  1  0.320564  0  0.09372  0.244551  0  3.772956  0
C  C105  1  0.63314582  0.25000139  0.91971333  1  0.320565  0  0.093715  0.244479  0  3.773067  0
C  C106  1  0.36685493  0.74999903  0.08028773  1  0.320532  0  0.093741  0.244453  0  3.773148  0
C  C107  1  0.86685492  0.25000214  0.41971274  1  0.320521  0  0.093716  0.244401  0  3.773147  0
C  C108  1  0.08580191  0.85396892  0.53538356  1  -0.019457  0  -0.158238  -0.272599  0  3.874435  0
C  C109  1  0.58579875  0.14603166  0.96461543  1  -0.019321  0  -0.158271  -0.272593  0  3.874647  0
C  C110  1  0.41419890  0.64603203  0.03538544  1  -0.019028  0  -0.158304  -0.27273  0  3.874728  0
C  C111  1  0.91419869  0.35396990  0.46461432  1  -0.019247  0  -0.158268  -0.272654  0  3.874535  0
C  C112  1  0.91419722  0.14603399  0.46461548  1  -0.01944  0  -0.158248  -0.272538  0  3.874565  0
C  C113  1  0.41419874  0.85396628  0.03538563  1  -0.019545  0  -0.15832  -0.272661  0  3.874648  0
C  C114  1  0.58580185  0.35396674  0.96461495  1  -0.019246  0  -0.158295  -0.27274  0  3.874675  0
C  C115  1  0.08579962  0.64603135  0.53538539  1  -0.019243  0  -0.158287  -0.272735  0  3.874632  0
C  C116  1  0.96145664  0.85323804  0.54637595  1  0.011549  0  -0.087421  0.055154  0  3.835172  0
C  C117  1  0.46145555  0.14676444  0.95362279  1  0.011531  0  -0.087408  0.055036  0  3.835172  0
C  C118  1  0.53854536  0.64676454  0.04637808  1  0.011457  0  -0.087408  0.055103  0  3.835139  0
C  C119  1  0.03854478  0.35323714  0.45362127  1  0.01154  0  -0.087413  0.055123  0  3.8351  0
C  C120  1  0.03854493  0.14676570  0.45362444  1  0.011509  0  -0.087421  0.055009  0  3.835284  0
C  C121  1  0.53854602  0.85323433  0.04637693  1  0.011341  0  -0.087398  0.055018  0  3.835223  0
C  C122  1  0.46145295  0.35323505  0.95362231  1  0.011442  0  -0.087408  0.055072  0  3.835116  0
C  C123  1  0.96145435  0.64676577  0.54637777  1  0.011423  0  -0.087412  0.054985  0  3.835272  0
C  C124  1  0.93284832  0.85440961  0.64711636  1  -0.013564  0  -0.158807  -0.26824  0  3.846244  0
C  C125  1  0.43284571  0.14559374  0.85288307  1  -0.013567  0  -0.158856  -0.268153  0  3.846158  0
C  C126  1  0.56715358  0.64559143  0.14711713  1  -0.013591  0  -0.158833  -0.268193  0  3.846328  0
C  C127  1  0.06715554  0.35440938  0.35288354  1  -0.01369  0  -0.158799  -0.268039  0  3.846102  0
C  C128  1  0.06715325  0.14559081  0.35288605  1  -0.013507  0  -0.158817  -0.268184  0  3.846293  0
C  C129  1  0.56715342  0.85440751  0.14711598  1  -0.013462  0  -0.158831  -0.268126  0  3.846211  0
C  C130  1  0.43284636  0.35440899  0.85288393  1  -0.013538  0  -0.158844  -0.268159  0  3.846213  0
C  C131  1  0.93284440  0.64559105  0.64711482  1  -0.013215  0  -0.158819  -0.268055  0  3.846147  0
C  C132  1  0.91270656  0.75000293  0.50180473  1  -0.034582  0  -0.164476  -0.217063  0  3.862453  0
C  C133  1  0.41270527  0.25000129  0.99819539  1  -0.034637  0  -0.164478  -0.217043  0  3.862387  0
C  C134  1  0.58729548  0.74999997  0.00180433  1  -0.034551  0  -0.164432  -0.216951  0  3.862349  0
C  C135  1  0.08729338  0.25000081  0.49819633  1  -0.03464  0  -0.164455  -0.217046  0  3.86235  0
N  N136  1  0.95325163  0.74999940  0.78884628  1  -1.235835  0  -0.215608  -0.026565  0  3.659772  0
N  N137  1  0.45325063  0.25000309  0.71115448  1  -1.235818  0  -0.215655  -0.026687  0  3.659829  0
N  N138  1  0.54674850  0.75000065  0.28884591  1  -1.235956  0  -0.215587  -0.026549  0  3.659845  0
N  N139  1  0.04674913  0.24999522  0.21115478  1  -1.235863  0  -0.215595  -0.026691  0  3.659903  0
N  N140  1  0.92247727  0.69340857  0.92643363  1  -0.676687  0  -0.249236  -0.222786  0  3.498723  0
N  N141  1  0.42247470  0.30659232  0.57356446  1  -0.676719  0  -0.249265  -0.22282  0  3.498716  0
N  N142  1  0.57752190  0.80659134  0.42643229  1  -0.676803  0  -0.249268  -0.222898  0  3.4988  0
N  N143  1  0.07752520  0.19340448  0.07356770  1  -0.676833  0  -0.24931  -0.222898  0  3.498617  0
N  N144  1  0.07752186  0.30658440  0.07356542  1  -0.849789  0  -0.249158  -0.222695  0  3.498884  0
N  N145  1  0.57752361  0.69340976  0.42643390  1  -0.849993  0  -0.249211  -0.222704  0  3.498749  0
N  N146  1  0.42247804  0.19341323  0.57356405  1  -0.849924  0  -0.249154  -0.222652  0  3.4987  0
N  N147  1  0.92247637  0.80658931  0.92643471  1  -0.849903  0  -0.249165  -0.222643  0  3.498676  0
N  N148  1  0.25353395  0.74999739  0.57237752  1  -1.22927  0  -0.216021  -0.030315  0  3.657906  0
N  N149  1  0.75353393  0.25000044  0.92762338  1  -1.229068  0  -0.21605  -0.030365  0  3.657924  0
N  N150  1  0.24646601  0.74999833  0.07237768  1  -1.229059  0  -0.21606  -0.030314  0  3.658085  0
N  N151  1  0.74646518  0.25000055  0.42762152  1  -1.228824  0  -0.216029  -0.030318  0  3.65806  0
N  N152  1  0.42274720  0.69338119  0.57455941  1  -0.674661  0  -0.246489  -0.218547  0  3.488594  0
N  N153  1  0.92274628  0.30661721  0.92543935  1  -0.847718  0  -0.246569  -0.21872  0  3.488728  0
N  N154  1  0.07725357  0.80661617  0.07455943  1  -0.847688  0  -0.246486  -0.218571  0  3.488578  0
N  N155  1  0.57725364  0.19338379  0.42543855  1  -0.847693  0  -0.246591  -0.218729  0  3.488734  0
N  N156  1  0.57725356  0.30661924  0.42543963  1  -0.67471  0  -0.246543  -0.218607  0  3.488653  0
N  N157  1  0.07725447  0.69338073  0.07455969  1  -0.674677  0  -0.246546  -0.218621  0  3.488656  0
N  N158  1  0.92274637  0.19338093  0.92544029  1  -0.674666  0  -0.246548  -0.218623  0  3.488686  0
N  N159  1  0.42274793  0.80661580  0.57455982  1  -0.847607  0  -0.246523  -0.218595  0  3.488442  0
O  O160  1  0.86845238  0.74999777  0.09318091  1  -1.016089  0  -0.590232  -0.865492  0  2.09085  0
O  O161  1  0.36845119  0.25000257  0.40681956  1  -1.016065  0  -0.590225  -0.865466  0  2.090833  0
O  O162  1  0.63154794  0.74999951  0.59318150  1  -1.0162  0  -0.590229  -0.865463  0  2.090823  0
O  O163  1  0.13154919  0.24999768  0.90682083  1  -1.0161  0  -0.590233  -0.865479  0  2.090868  0
O  O164  1  0.78140141  0.54794901  0.03317676  1  -0.864712  0  -0.532155  -0.692065  0  1.718042  0
O  O165  1  0.28140066  0.45205147  0.46682310  1  -0.864736  0  -0.532151  -0.692078  0  1.718052  0
O  O166  1  0.71859897  0.95205118  0.53317636  1  -0.86473  0  -0.532171  -0.69205  0  1.718085  0
O  O167  1  0.21860047  0.04794670  0.96682255  1  -0.864776  0  -0.532156  -0.692039  0  1.718023  0
O  O168  1  0.21859935  0.45204810  0.96682363  1  -0.864716  0  -0.532162  -0.692067  0  1.718072  0
O  O169  1  0.71859928  0.54795061  0.53317662  1  -0.864771  0  -0.532182  -0.692078  0  1.718071  0
O  O170  1  0.28140015  0.04795090  0.46682403  1  -0.864769  0  -0.532162  -0.692075  0  1.718064  0
O  O171  1  0.78140110  0.95204875  0.03317784  1  -0.864704  0  -0.532169  -0.692046  0  1.718035  0
O  O172  1  0.00000044  0.49999863  0.00000019  1  -1.055455  0  -0.609063  -0.932978  0  2.220059  0
O  O173  1  0.49999997  0.50000063  0.49999918  1  -1.055431  0  -0.609042  -0.93294  0  2.220031  0
O  O174  1  0.49999953  0.00000034  0.50000102  1  -1.05541  0  -0.60905  -0.932934  0  2.220074  0
O  O175  1  0.00000037  0.99999706  0.99999871  1  -1.055446  0  -0.609052  -0.932935  0  2.220051  0
O  O176  1  0.92695645  0.54852109  0.17478638  1  -0.864469  0  -0.551027  -0.700684  0  1.632871  0
O  O177  1  0.42695504  0.45147750  0.32521203  1  -0.864468  0  -0.551018  -0.700695  0  1.632863  0
O  O178  1  0.57304379  0.95147396  0.67478608  1  -0.864566  0  -0.551025  -0.700627  0  1.632888  0
O  O179  1  0.07304461  0.04852498  0.82521293  1  -0.864428  0  -0.551004  -0.700644  0  1.632852  0
O  O180  1  0.07304268  0.45147188  0.82521402  1  -0.86453  0  -0.550998  -0.700608  0  1.632886  0
O  O181  1  0.57304328  0.54852458  0.67478634  1  -0.864424  0  -0.551014  -0.700618  0  1.632862  0
O  O182  1  0.42695941  0.04852978  0.32521499  1  -0.864498  0  -0.551003  -0.700645  0  1.632965  0
O  O183  1  0.92696022  0.95147213  0.17478544  1  -0.864548  0  -0.551002  -0.700581  0  1.632881  0
