# generated using pymatgen
data_NdH6C7SO8
_symmetry_space_group_name_H-M   'P 1'
_cell_length_a   5.90900748
_cell_length_b   10.47583013
_cell_length_c   18.82925844
_cell_angle_alpha   81.08626722
_cell_angle_beta   80.94376467
_cell_angle_gamma   73.61607038
_symmetry_Int_Tables_number   1
_chemical_formula_structural   NdH6C7SO8
_chemical_formula_sum   'Nd4 H24 C28 S4 O32'
_cell_volume   1096.75174533
_cell_formula_units_Z   4
loop_
 _symmetry_equiv_pos_site_id
 _symmetry_equiv_pos_as_xyz
  1  'x, y, z'
loop_
 _atom_site_type_symbol
 _atom_site_label
 _atom_site_symmetry_multiplicity
 _atom_site_fract_x
 _atom_site_fract_y
 _atom_site_fract_z
 _atom_site_occupancy
 _atom_site_hle17_bader_spin_density
 _atom_site_hle17_ddec_charge
 _atom_site_hle17_ddec_spin_density
 _atom_site_hle17_ddec_sum_bond_order
 _atom_site_hle17_magmom
 _atom_site_hse06_10hf_bader_spin_density
 _atom_site_hse06_10hf_ddec_charge
 _atom_site_hse06_10hf_ddec_spin_density
 _atom_site_hse06_10hf_ddec_sum_bond_order
 _atom_site_hse06_10hf_magmom
 _atom_site_hse06_bader_spin_density
 _atom_site_hse06_ddec_charge
 _atom_site_hse06_ddec_spin_density
 _atom_site_hse06_ddec_sum_bond_order
 _atom_site_hse06_magmom
 _atom_site_pbe_bader_spin_density
 _atom_site_pbe_cm5_charge
 _atom_site_pbe_ddec_charge
 _atom_site_pbe_ddec_spin_density
 _atom_site_pbe_ddec_sum_bond_order
 _atom_site_pbe_magmom
Nd  Nd0  1  0.94138174  0.19807849  0.53106795  1  0  2.279152  0  1.623061  0  0  2.116117  0  2.089758  0  0  2.215033  0  1.94039  0  0  1.490384  2.083663  0  2.123702  0
Nd  Nd1  1  0.67077672  0.30194987  0.96891931  1  0  2.279367  0  1.622234  0  0  2.116046  0  2.089493  0  0  2.215353  0  1.939454  0  0  1.490259  2.0836  0  2.123423  0
Nd  Nd2  1  0.05862915  0.80193428  0.46893259  1  0  2.279162  0  1.62312  0  0  2.116077  0  2.089924  0  0  2.215052  0  1.940454  0  0  1.490349  2.083631  0  2.123866  0
Nd  Nd3  1  0.32922577  0.69803769  0.03107749  1  0  2.2794  0  1.622217  0  0  2.116115  0  2.089471  0  0  2.215408  0  1.93943  0  0  1.490268  2.08359  0  2.123539  0
H  H4  1  0.55390683  0.26419423  0.66143540  1  0  0.443976  0  0.811253  0  0  0.423528  0  0.866775  0  0  0.431596  0  0.855403  0  0  0.330204  0.418148  0  0.874431  0
H  H5  1  0.47994507  0.23570340  0.83861881  1  0  0.443143  0  0.811456  0  0  0.422801  0  0.867525  0  0  0.430876  0  0.856147  0  0  0.330608  0.417461  0  0.875128  0
H  H6  1  0.44610517  0.73580442  0.33856306  1  0  0.443979  0  0.81128  0  0  0.423544  0  0.866748  0  0  0.431613  0  0.855377  0  0  0.330192  0.418168  0  0.874399  0
H  H7  1  0.52008814  0.76424596  0.16137639  1  0  0.443164  0  0.811366  0  0  0.422826  0  0.867481  0  0  0.430901  0  0.856103  0  0  0.330536  0.417488  0  0.875081  0
H  H8  1  0.41683148  0.31768419  0.59092332  1  0  0.450806  0  0.844379  0  0  0.417374  0  0.911107  0  0  0.429395  0  0.893764  0  0  0.30265  0.409023  0  0.923241  0
H  H9  1  0.32601460  0.18209060  0.90915655  1  0  0.452263  0  0.842577  0  0  0.418317  0  0.910163  0  0  0.430322  0  0.89282  0  0  0.302905  0.409973  0  0.922282  0
H  H10  1  0.58318088  0.68233357  0.40907650  1  0  0.45093  0  0.84421  0  0  0.417486  0  0.91096  0  0  0.429507  0  0.893616  0  0  0.302708  0.409136  0  0.923096  0
H  H11  1  0.67397991  0.81789901  0.09084197  1  0  0.452278  0  0.842563  0  0  0.418355  0  0.910121  0  0  0.430359  0  0.892778  0  0  0.302904  0.410009  0  0.922243  0
H  H12  1  0.47935293  0.24310057  0.45182735  1  0  0.448318  0  0.831274  0  0  0.423847  0  0.886656  0  0  0.432978  0  0.873588  0  0  0.319425  0.417393  0  0.896106  0
H  H13  1  0.17442030  0.25673768  0.04817009  1  0  0.448252  0  0.829662  0  0  0.42387  0  0.886135  0  0  0.432993  0  0.873075  0  0  0.319356  0.417431  0  0.895541  0
H  H14  1  0.52065312  0.75691333  0.54817735  1  0  0.448229  0  0.831385  0  0  0.423773  0  0.88675  0  0  0.432902  0  0.873683  0  0  0.319402  0.417321  0  0.896198  0
H  H15  1  0.82558646  0.74324886  0.95182643  1  0  0.448202  0  0.829802  0  0  0.423851  0  0.886159  0  0  0.432973  0  0.873101  0  0  0.319339  0.417418  0  0.895553  0
H  H16  1  0.65101278  0.10056454  0.44666005  1  0  0.437722  0  0.870212  0  0  0.405816  0  0.935886  0  0  0.416251  0  0.921136  0  0  0.303767  0.398354  0  0.946635  0
H  H17  1  0.19800556  0.39932520  0.05335517  1  0  0.437273  0  0.870834  0  0  0.405216  0  0.936543  0  0  0.415644  0  0.921819  0  0  0.304088  0.397814  0  0.947196  0
H  H18  1  0.34900516  0.89945524  0.55333998  1  0  0.437879  0  0.870038  0  0  0.406133  0  0.935491  0  0  0.416528  0  0.92078  0  0  0.303885  0.398675  0  0.946242  0
H  H19  1  0.80198950  0.60066434  0.94664114  1  0  0.437328  0  0.870779  0  0  0.405266  0  0.936497  0  0  0.415699  0  0.921765  0  0  0.304078  0.397863  0  0.947154  0
H  H20  1  0.92792193  0.80789058  0.74891856  1  0  0.115838  0  0.963563  0  0  0.123716  0  1.028451  0  0  0.125759  0  1.029883  0  0  0.103576  0.122378  0  1.027306  0
H  H21  1  0.48539751  0.69226987  0.75105222  1  0  0.116395  0  0.964067  0  0  0.123707  0  1.029534  0  0  0.125725  0  1.031005  0  0  0.103899  0.122457  0  1.028215  0
H  H22  1  0.07207466  0.19210634  0.25108924  1  0  0.115814  0  0.963577  0  0  0.123755  0  1.028393  0  0  0.125799  0  1.029823  0  0  0.103602  0.122423  0  1.027249  0
H  H23  1  0.51457639  0.30772677  0.24894599  1  0  0.116137  0  0.964236  0  0  0.123563  0  1.029606  0  0  0.125582  0  1.03107  0  0  0.103798  0.122317  0  1.028282  0
H  H24  1  0.62053618  0.88908791  0.86235442  1  0  0.145343  0  0.957231  0  0  0.153949  0  1.015535  0  0  0.158091  0  1.011871  0  0  0.119138  0.150991  0  1.018112  0
H  H25  1  0.37288904  0.61100630  0.63767121  1  0  0.146064  0  0.956857  0  0  0.154302  0  1.015567  0  0  0.158437  0  1.011903  0  0  0.118915  0.151299  0  1.018204  0
H  H26  1  0.37942785  0.11088687  0.13765157  1  0  0.145291  0  0.957353  0  0  0.15393  0  1.015596  0  0  0.15807  0  1.011934  0  0  0.11914  0.150971  0  1.018166  0
H  H27  1  0.62708232  0.38899930  0.36232476  1  0  0.146145  0  0.956869  0  0  0.154444  0  1.015509  0  0  0.15858  0  1.011845  0  0  0.11892  0.151438  0  1.018146  0
C  C28  1  0.77549490  0.88769456  0.60791178  1  0  0.728506  0  3.837151  0  0  0.681203  0  4.127404  0  0  0.716069  0  4.120155  0  0  0.23153  0.657209  0  4.135505  0
C  C29  1  0.27169150  0.61223052  0.89212424  1  0  0.727684  0  3.839805  0  0  0.681735  0  4.127947  0  0  0.716686  0  4.120646  0  0  0.232941  0.657748  0  4.136107  0
C  C30  1  0.22451898  0.11232232  0.39209208  1  0  0.728024  0  3.837203  0  0  0.680855  0  4.127272  0  0  0.715733  0  4.120008  0  0  0.231281  0.656854  0  4.135378  0
C  C31  1  0.72829891  0.38775506  0.10787369  1  0  0.72744  0  3.839303  0  0  0.681305  0  4.127749  0  0  0.716234  0  4.120493  0  0  0.232759  0.657343  0  4.135869  0
C  C32  1  0.64534155  0.92113763  0.68038666  1  0  -0.033853  0  3.710301  0  0  -0.026596  0  3.952189  0  0  -0.02567  0  3.967705  0  0  -0.008569  -0.026997  0  3.941312  0
C  C33  1  0.24776875  0.57882510  0.81961954  1  0  -0.032163  0  3.709371  0  0  -0.025471  0  3.952004  0  0  -0.024493  0  3.967412  0  0  -0.007933  -0.026011  0  3.94128  0
C  C34  1  0.35467489  0.07887725  0.31961743  1  0  -0.033981  0  3.710219  0  0  -0.026739  0  3.952194  0  0  -0.025817  0  3.967727  0  0  -0.008686  -0.027137  0  3.941325  0
C  C35  1  0.75221964  0.42116953  0.18037897  1  0  -0.0321  0  3.709192  0  0  -0.025334  0  3.951835  0  0  -0.02436  0  3.967259  0  0  -0.007897  -0.025877  0  3.941105  0
C  C36  1  0.74762444  0.87112026  0.74591534  1  0  -0.104545  0  3.738981  0  0  -0.127675  0  3.994668  0  0  -0.13231  0  4.015254  0  0  -0.099243  -0.124724  0  3.980466  0
C  C37  1  0.36552419  0.62893693  0.75406551  1  0  -0.106572  0  3.741153  0  0  -0.129377  0  3.997129  0  0  -0.134025  0  4.017748  0  0  -0.100666  -0.126335  0  3.982619  0
C  C38  1  0.25236913  0.12887967  0.25409216  1  0  -0.104421  0  3.738856  0  0  -0.1276  0  3.994535  0  0  -0.132234  0  4.015122  0  0  -0.099181  -0.12466  0  3.980344  0
C  C39  1  0.63445034  0.37106067  0.24593157  1  0  -0.106307  0  3.740811  0  0  -0.129201  0  3.996758  0  0  -0.133842  0  4.017376  0  0  -0.100538  -0.126168  0  3.982251  0
C  C40  1  0.59231492  0.91320661  0.80572383  1  0  -0.139274  0  3.658555  0  0  -0.161454  0  3.941484  0  0  -0.158511  0  3.95454  0  0  -0.083596  -0.162961  0  3.932144  0
C  C41  1  0.31219694  0.58682658  0.69428693  1  0  -0.139103  0  3.660623  0  0  -0.160776  0  3.94295  0  0  -0.15784  0  3.956011  0  0  -0.083002  -0.162299  0  3.933761  0
C  C42  1  0.40766024  0.08678623  0.19428190  1  0  -0.139212  0  3.658423  0  0  -0.161407  0  3.941335  0  0  -0.158463  0  3.95439  0  0  -0.08357  -0.162901  0  3.931981  0
C  C43  1  0.68777092  0.41317606  0.30571068  1  0  -0.139223  0  3.660321  0  0  -0.160991  0  3.942729  0  0  -0.158059  0  3.955791  0  0  -0.083032  -0.162504  0  3.933539  0
C  C44  1  0.41324745  0.00042203  0.69232456  1  0  -0.204042  0  3.740861  0  0  -0.192805  0  4.008019  0  0  -0.200986  0  4.027013  0  0  -0.030414  -0.187027  0  3.994092  0
C  C45  1  0.10707346  0.49944518  0.80771946  1  0  -0.20375  0  3.741628  0  0  -0.193065  0  4.009523  0  0  -0.201307  0  4.028565  0  0  -0.030538  -0.187436  0  3.996018  0
C  C46  1  0.58676917  0.99959472  0.30767497  1  0  -0.203716  0  3.74061  0  0  -0.192651  0  4.00799  0  0  -0.200858  0  4.027023  0  0  -0.030362  -0.18688  0  3.994067  0
C  C47  1  0.89291686  0.50055345  0.19227841  1  0  -0.203693  0  3.741847  0  0  -0.192995  0  4.009697  0  0  -0.201233  0  4.028741  0  0  -0.030464  -0.187367  0  3.996196  0
C  C48  1  0.24898107  0.06803110  0.63929743  1  0  0.651388  0  3.97173  0  0  0.604426  0  4.263946  0  0  0.638249  0  4.260224  0  0  0.187543  0.58092  0  4.269318  0
C  C49  1  0.95717430  0.43191567  0.86076610  1  0  0.652186  0  3.972093  0  0  0.60533  0  4.264382  0  0  0.639145  0  4.260699  0  0  0.189041  0.581931  0  4.269634  0
C  C50  1  0.75103864  0.93199070  0.36070315  1  0  0.651526  0  3.971784  0  0  0.604634  0  4.263955  0  0  0.638464  0  4.260241  0  0  0.187567  0.581136  0  4.269315  0
C  C51  1  0.04281333  0.56806886  0.13923005  1  0  0.652085  0  3.971753  0  0  0.605272  0  4.263998  0  0  0.639076  0  4.260317  0  0  0.189065  0.581879  0  4.269239  0
C  C52  1  0.88933977  0.51984103  0.47914932  1  0  0.567889  0  3.906741  0  0  0.525043  0  4.198614  0  0  0.554763  0  4.19433  0  0  0.229515  0.504428  0  4.205186  0
C  C53  1  0.88825560  0.98018400  0.02084258  1  0  0.568481  0  3.905914  0  0  0.525213  0  4.19877  0  0  0.554988  0  4.194429  0  0  0.230506  0.504821  0  4.204775  0
C  C54  1  0.11064519  0.48015865  0.52084989  1  0  0.567526  0  3.907048  0  0  0.524635  0  4.198975  0  0  0.554356  0  4.194694  0  0  0.229397  0.50402  0  4.205545  0
C  C55  1  0.11173304  0.01981354  0.97915245  1  0  0.568284  0  3.906152  0  0  0.52499  0  4.199054  0  0  0.554765  0  4.19472  0  0  0.23051  0.504603  0  4.205051  0
S  S56  1  0.32364518  0.01144563  0.78345080  1  0  0.210735  0  2.622394  0  0  0.212195  0  2.946156  0  0  0.212978  0  2.951194  0  0  0.119312  0.211983  0  2.941335  0
S  S57  1  0.11970298  0.48849978  0.71659997  1  0  0.210391  0  2.623747  0  0  0.212311  0  2.947147  0  0  0.213108  0  2.952176  0  0  0.118798  0.211633  0  2.943  0
S  S58  1  0.67635414  0.98855121  0.21655435  1  0  0.210602  0  2.622369  0  0  0.212114  0  2.946198  0  0  0.212906  0  2.951246  0  0  0.11929  0.211898  0  2.941377  0
S  S59  1  0.88027090  0.51150268  0.28339181  1  0  0.21041  0  2.623939  0  0  0.21233  0  2.947382  0  0  0.213127  0  2.952412  0  0  0.118783  0.211656  0  2.943234  0
O  O60  1  0.87285358  0.97167666  0.56681591  1  0  -0.787833  0  2.09751  0  0  -0.729643  0  2.356848  0  0  -0.767381  0  2.345081  0  0  -0.409125  -0.711214  0  2.363617  0
O  O61  1  0.41191401  0.52823558  0.93319619  1  0  -0.788337  0  2.099938  0  0  -0.730282  0  2.358259  0  0  -0.768162  0  2.346483  0  0  -0.409841  -0.712033  0  2.365202  0
O  O62  1  0.12716687  0.02834127  0.43318937  1  0  -0.787456  0  2.097619  0  0  -0.729345  0  2.356921  0  0  -0.767088  0  2.345151  0  0  -0.408956  -0.710911  0  2.363688  0
O  O63  1  0.58808611  0.47175589  0.06679750  1  0  -0.788376  0  2.099824  0  0  -0.730241  0  2.35822  0  0  -0.76811  0  2.346452  0  0  -0.409926  -0.712006  0  2.365163  0
O  O64  1  0.79586904  0.77322478  0.58913363  1  0  -0.691658  0  1.953053  0  0  -0.643137  0  2.184322  0  0  -0.672787  0  2.173912  0  0  -0.355708  -0.62597  0  2.190506  0
O  O65  1  0.15857069  0.72667518  0.91091336  1  0  -0.690676  0  1.953999  0  0  -0.642709  0  2.185074  0  0  -0.672412  0  2.174564  0  0  -0.356431  -0.625708  0  2.191187  0
O  O66  1  0.20415593  0.22679504  0.41086789  1  0  -0.691585  0  1.952861  0  0  -0.643121  0  2.184082  0  0  -0.672736  0  2.173598  0  0  -0.355617  -0.625955  0  2.190277  0
O  O67  1  0.84143612  0.27330543  0.08908624  1  0  -0.69052  0  1.953565  0  0  -0.642534  0  2.184867  0  0  -0.672231  0  2.174376  0  0  -0.356252  -0.625546  0  2.190958  0
O  O68  1  0.31769609  0.04992770  0.57180531  1  0  -0.711472  0  2.037559  0  0  -0.646676  0  2.269546  0  0  -0.676235  0  2.258887  0  0  -0.37614  -0.629787  0  2.276482  0
O  O69  1  0.94003162  0.45010439  0.92825143  1  0  -0.712115  0  2.036089  0  0  -0.647202  0  2.26833  0  0  -0.676973  0  2.258047  0  0  -0.376151  -0.63025  0  2.275025  0
O  O70  1  0.68233422  0.95009113  0.42819654  1  0  -0.71157  0  2.037614  0  0  -0.646676  0  2.269586  0  0  -0.676265  0  2.258927  0  0  -0.376139  -0.629787  0  2.276522  0
O  O71  1  0.05996406  0.54988618  0.07174542  1  0  -0.711972  0  2.035861  0  0  -0.647203  0  2.268256  0  0  -0.676935  0  2.257945  0  0  -0.376178  -0.630238  0  2.274944  0
O  O72  1  0.04529328  0.14324622  0.65865900  1  0  -0.671977  0  1.916263  0  0  -0.626228  0  2.144625  0  0  -0.653584  0  2.133745  0  0  -0.379932  -0.611171  0  2.151334  0
O  O73  1  0.84820663  0.35666690  0.84139447  1  0  -0.672872  0  1.916583  0  0  -0.627063  0  2.145024  0  0  -0.654414  0  2.134099  0  0  -0.381398  -0.612136  0  2.151693  0
O  O74  1  0.95472385  0.85677067  0.34134503  1  0  -0.672125  0  1.916339  0  0  -0.626384  0  2.144689  0  0  -0.653736  0  2.13379  0  0  -0.380002  -0.611362  0  2.151473  0
O  O75  1  0.15180005  0.64331164  0.15860298  1  0  -0.672919  0  1.91633  0  0  -0.627099  0  2.144725  0  0  -0.654459  0  2.133821  0  0  -0.381456  -0.612158  0  2.151383  0
O  O76  1  0.78774999  0.43126156  0.47551172  1  0  -0.617247  0  2.032491  0  0  -0.570143  0  2.272981  0  0  -0.598332  0  2.262765  0  0  -0.354199  -0.554801  0  2.278706  0
O  O77  1  0.69448163  0.06885274  0.02454424  1  0  -0.61688  0  2.031544  0  0  -0.569581  0  2.272477  0  0  -0.597825  0  2.262246  0  0  -0.354374  -0.554165  0  2.277914  0
O  O78  1  0.21225494  0.56874421  0.52448995  1  0  -0.617222  0  2.032301  0  0  -0.570108  0  2.272807  0  0  -0.59831  0  2.262591  0  0  -0.354176  -0.554764  0  2.27853  0
O  O79  1  0.30552329  0.93112372  0.97545097  1  0  -0.616933  0  2.031161  0  0  -0.56958  0  2.272005  0  0  -0.597827  0  2.261775  0  0  -0.354498  -0.554152  0  2.277446  0
O  O80  1  0.82770052  0.64215950  0.45144613  1  0  -0.689694  0  2.102145  0  0  -0.629749  0  2.336161  0  0  -0.661253  0  2.326289  0  0  -0.349063  -0.612205  0  2.342041  0
O  O81  1  0.92101248  0.85785940  0.04851322  1  0  -0.691207  0  2.103961  0  0  -0.630853  0  2.33839  0  0  -0.662351  0  2.328418  0  0  -0.349667  -0.613222  0  2.343878  0
O  O82  1  0.17230564  0.35785528  0.54855462  1  0  -0.689503  0  2.102509  0  0  -0.629556  0  2.336552  0  0  -0.661047  0  2.326678  0  0  -0.349036  -0.612016  0  2.342427  0
O  O83  1  0.07898000  0.14212528  0.95148821  1  0  -0.691011  0  2.104571  0  0  -0.630649  0  2.339031  0  0  -0.662145  0  2.329063  0  0  -0.349584  -0.613033  0  2.344513  0
O  O84  1  0.57649706  0.28668265  0.60929664  1  0  -0.916472  0  1.84868  0  0  -0.870448  0  2.046815  0  0  -0.895557  0  2.010169  0  0  -0.641344  -0.858211  0  2.068901  0
O  O85  1  0.47320570  0.21298964  0.89073992  1  0  -0.91678  0  1.846215  0  0  -0.87056  0  2.045429  0  0  -0.895684  0  2.008754  0  0  -0.641857  -0.858292  0  2.067284  0
O  O86  1  0.42351963  0.71334216  0.39070363  1  0  -0.916595  0  1.848627  0  0  -0.870561  0  2.046763  0  0  -0.895683  0  2.010115  0  0  -0.641357  -0.85832  0  2.06885  0
O  O87  1  0.52678191  0.78700897  0.10925725  1  0  -0.916809  0  1.846113  0  0  -0.87062  0  2.045366  0  0  -0.89574  0  2.008689  0  0  -0.641799  -0.858341  0  2.067221  0
O  O88  1  0.64491787  0.19352548  0.45578675  1  0  -0.911703  0  1.859201  0  0  -0.86272  0  2.058363  0  0  -0.88861  0  2.024986  0  0  -0.649521  -0.8492  0  2.078831  0
O  O89  1  0.29422697  0.30640313  0.04424072  1  0  -0.910894  0  1.857841  0  0  -0.861778  0  2.05871  0  0  -0.887695  0  2.025342  0  0  -0.649569  -0.848412  0  2.079163  0
O  O90  1  0.35509184  0.80649335  0.54421511  1  0  -0.911731  0  1.859264  0  0  -0.862889  0  2.058223  0  0  -0.888739  0  2.024936  0  0  -0.649581  -0.849381  0  2.078678  0
O  O91  1  0.70577195  0.69358749  0.95575799  1  0  -0.910907  0  1.857947  0  0  -0.861844  0  2.058801  0  0  -0.887757  0  2.025421  0  0  -0.649565  -0.848463  0  2.079265  0
