# generated using pymatgen
data_FeCu2H20(C6N5)2
_symmetry_space_group_name_H-M   'P 1'
_cell_length_a   7.44932183
_cell_length_b   10.50101845
_cell_length_c   12.37130842
_cell_angle_alpha   90.00012782
_cell_angle_beta   92.27809521
_cell_angle_gamma   90.00033836
_symmetry_Int_Tables_number   1
_chemical_formula_structural   FeCu2H20(C6N5)2
_chemical_formula_sum   'Fe2 Cu4 H40 C24 N20'
_cell_volume   966.98651738
_cell_formula_units_Z   2
loop_
 _symmetry_equiv_pos_site_id
 _symmetry_equiv_pos_as_xyz
  1  'x, y, z'
loop_
 _atom_site_type_symbol
 _atom_site_label
 _atom_site_symmetry_multiplicity
 _atom_site_fract_x
 _atom_site_fract_y
 _atom_site_fract_z
 _atom_site_occupancy
 _atom_site_hle17_ddec_charge
 _atom_site_hle17_ddec_spin_density
 _atom_site_hle17_ddec_sum_bond_order
 _atom_site_hle17_magmom
 _atom_site_hse06_10hf_ddec_charge
 _atom_site_hse06_10hf_ddec_spin_density
 _atom_site_hse06_10hf_ddec_sum_bond_order
 _atom_site_hse06_10hf_magmom
 _atom_site_hse06_ddec_charge
 _atom_site_hse06_ddec_spin_density
 _atom_site_hse06_ddec_sum_bond_order
 _atom_site_hse06_magmom
 _atom_site_pbe_cm5_charge
 _atom_site_pbe_ddec_charge
 _atom_site_pbe_ddec_spin_density
 _atom_site_pbe_ddec_sum_bond_order
 _atom_site_pbe_magmom
Fe  Fe0  1  0.99999961  0.99999556  0.00000779  1  -0.115147  -0.001023  4.953734  -0.001  -0.056964  2e-06  5.373896  0.0  -0.092527  -3e-06  5.384251  0.0  0.442922  -0.023799  1.2e-05  5.355072  0.0
Fe  Fe1  1  0.49998854  0.49999222  0.49999623  1  -0.115051  0.001096  4.953839  0.001  -0.056901  6e-06  5.374006  0.0  -0.092528  9e-06  5.384368  0.0  0.442916  -0.023763  -6e-06  5.355254  0.0
Cu  Cu2  1  0.50201870  0.76883907  0.17065501  1  0.849466  0.685892  2.050496  0.492  0.842912  0.805554  2.46944  0.625  0.919256  0.87988  2.404457  0.706  0.792989  0.795775  0.745697  2.514574  0.567
Cu  Cu3  1  0.99797827  0.26884499  0.32935024  1  0.849371  -0.685908  2.050716  -0.492  0.842791  -0.805559  2.46968  -0.625  0.919162  -0.879873  2.404649  -0.706  0.792962  0.79564  -0.745709  2.51484  -0.567
Cu  Cu4  1  0.49798553  0.23115489  0.82934666  1  0.849609  -0.685898  2.050519  -0.492  0.842998  -0.805544  2.469473  -0.625  0.91945  -0.879873  2.404345  -0.706  0.793025  0.795832  -0.745691  2.514659  -0.567
Cu  Cu5  1  0.00201932  0.73116040  0.67065378  1  0.849468  0.68587  2.050577  0.492  0.842914  0.805539  2.469514  0.625  0.919273  0.879861  2.404493  0.706  0.792966  0.795759  0.745692  2.51467  0.567
H  H6  1  0.53944601  0.53716441  0.12439992  1  0.286222  -0.000908  0.896011  -0.002  0.286303  0.000315  0.941421  0.0  0.291146  3.4e-05  0.940076  -0.001  0.30176  0.282766  0.000547  0.942807  0.0
H  H7  1  0.96055015  0.03716648  0.37559918  1  0.286263  0.000912  0.895885  0.002  0.286339  -0.000316  0.941303  0.0  0.291185  -3.4e-05  0.939953  0.001  0.301765  0.282804  -0.000548  0.94269  0.0
H  H8  1  0.46055272  0.46283049  0.87559765  1  0.286272  0.00091  0.895951  0.002  0.286344  -0.000315  0.941366  0.0  0.291191  -3.3e-05  0.940016  0.001  0.30179  0.282809  -0.000547  0.942749  0.0
H  H9  1  0.03944460  0.96283985  0.62439995  1  0.286203  -0.000908  0.895969  -0.002  0.286291  0.000315  0.941378  0.0  0.291133  3.4e-05  0.940036  -0.001  0.301737  0.282756  0.000547  0.942766  0.0
H  H10  1  0.46410841  0.62418140  0.02012797  1  0.292788  -0.001648  0.899833  -0.002  0.288969  -0.000538  0.950976  -0.001  0.294574  -0.000625  0.947978  -0.001  0.300262  0.284812  -0.000436  0.953636  -0.001
H  H11  1  0.03588800  0.12418006  0.47987184  1  0.292783  0.001654  0.899878  0.002  0.288964  0.000538  0.951005  0.001  0.294568  0.000625  0.948009  0.001  0.300254  0.28481  0.000436  0.953666  0.001
H  H12  1  0.53589165  0.37582017  0.97986960  1  0.292759  0.001646  0.89986  0.002  0.288944  0.000538  0.95099  0.001  0.294547  0.000625  0.948  0.001  0.300265  0.284789  0.000436  0.953649  0.001
H  H13  1  0.96410819  0.87582342  0.52013054  1  0.292767  -0.001652  0.89987  -0.002  0.288954  -0.000538  0.951005  -0.001  0.294557  -0.000625  0.94801  -0.001  0.300266  0.284799  -0.000436  0.953665  -0.001
H  H14  1  0.05705417  0.49974916  0.29730831  1  0.309948  0.000989  0.857626  0.002  0.310597  -0.000347  0.897947  0.0  0.314477  -7.3e-05  0.898609  0.001  0.316708  0.307691  -0.000592  0.897954  0.0
H  H15  1  0.44294523  0.99974801  0.20268585  1  0.310032  -0.000985  0.857754  -0.002  0.310681  0.000347  0.898049  0.0  0.314563  7.3e-05  0.898707  -0.001  0.316744  0.307776  0.000592  0.898062  0.0
H  H16  1  0.94294187  0.50025718  0.70268922  1  0.310002  -0.00099  0.857638  -0.002  0.31066  0.000347  0.897937  0.0  0.314541  7.3e-05  0.898596  -0.001  0.31675  0.307754  0.000593  0.897947  0.0
H  H17  1  0.55705884  0.00024880  0.79731097  1  0.310007  0.000986  0.857539  0.002  0.310658  -0.000347  0.897864  0.0  0.314541  -7.3e-05  0.898522  0.001  0.3167  0.307749  -0.000592  0.897877  0.0
H  H18  1  0.16586727  0.42297386  0.20381222  1  0.29023  6.6e-05  0.88462  0.001  0.289319  -0.001192  0.933101  0.0  0.293702  -0.000723  0.933107  0.0  0.306006  0.286071  -0.001581  0.933589  -0.001
H  H19  1  0.33413034  0.92297345  0.29618823  1  0.290251  -6e-05  0.884518  -0.001  0.289334  0.001192  0.933006  0.0  0.293716  0.000722  0.933011  0.0  0.305979  0.286083  0.00158  0.933498  0.001
H  H20  1  0.83412893  0.57702962  0.79619016  1  0.290198  -6.5e-05  0.884554  -0.001  0.289287  0.001192  0.933052  0.0  0.293669  0.000722  0.933057  0.0  0.305947  0.286036  0.00158  0.933543  0.001
H  H21  1  0.66587531  0.07702718  0.70381588  1  0.290211  6.5e-05  0.884637  0.001  0.289301  -0.001192  0.933123  0.0  0.293685  -0.000722  0.93313  0.0  0.305994  0.286052  -0.00158  0.933616  -0.001
H  H22  1  0.76500506  0.69108341  0.98215857  1  0.079952  3e-06  0.928721  0.0  0.099723  0.000142  0.981048  0.0  0.097877  9.8e-05  0.983946  0.0  0.113842  0.100766  0.000179  0.979227  0.0
H  H23  1  0.73499445  0.19108555  0.51783796  1  0.079831  -5e-06  0.928789  0.0  0.099721  -0.000142  0.981021  0.0  0.097872  -9.7e-05  0.983925  0.0  0.113846  0.100765  -0.000179  0.979203  0.0
H  H24  1  0.23499635  0.30891721  0.01783903  1  0.079975  8e-06  0.92873  0.0  0.099728  -0.000142  0.981065  0.0  0.097882  -9.8e-05  0.983963  0.0  0.113853  0.100774  -0.000179  0.979243  0.0
H  H25  1  0.26499758  0.80892269  0.48216033  1  0.079978  5e-06  0.928763  0.0  0.099786  0.000142  0.981047  0.0  0.09794  9.8e-05  0.983944  0.0  0.113879  0.100828  0.000179  0.979229  0.0
H  H26  1  0.74576972  0.52219402  0.97076828  1  0.030946  0.005045  0.952125  0.006  0.049559  0.003967  1.018721  0.005  0.048514  0.002827  1.018721  0.003  0.093939  0.050098  0.004798  1.018951  0.006
H  H27  1  0.75422437  0.02219722  0.52922945  1  0.030958  -0.005036  0.95214  -0.006  0.049578  -0.003967  1.018761  -0.005  0.048532  -0.002826  1.018765  -0.003  0.093917  0.050119  -0.004797  1.01899  -0.006
H  H28  1  0.25423161  0.47780184  0.02922689  1  0.030934  -0.005028  0.952287  -0.006  0.049597  -0.003968  1.018807  -0.005  0.048549  -0.002827  1.018811  -0.003  0.093943  0.050137  -0.004799  1.019033  -0.006
H  H29  1  0.24576771  0.97780721  0.47077046  1  0.031016  0.005037  0.952179  0.006  0.049616  0.003967  1.018784  0.005  0.048569  0.002827  1.018787  0.003  0.093941  0.050158  0.004798  1.019014  0.006
H  H30  1  0.02336553  0.60735552  0.07793688  1  0.084898  -9.7e-05  0.963657  0.0  0.101174  -0.00031  1.026324  0.0  0.101794  -0.000237  1.027147  0.0  0.093675  0.100627  -0.000374  1.025801  0.0
H  H31  1  0.47662666  0.10735968  0.42206123  1  0.084925  9.7e-05  0.96357  0.0  0.101181  0.00031  1.026248  0.0  0.101786  0.000237  1.027061  0.0  0.093681  0.100643  0.000374  1.025732  0.0
H  H32  1  0.97663325  0.39264225  0.92206230  1  0.084859  0.000103  0.963696  0.0  0.101137  0.00031  1.026332  0.0  0.101752  0.000237  1.027153  0.0  0.093682  0.100599  0.000374  1.025816  0.0
H  H33  1  0.52336261  0.89263999  0.57793460  1  0.084952  -9.8e-05  0.963592  0.0  0.101233  -0.00031  1.026245  0.0  0.101853  -0.000237  1.027065  0.0  0.09369  0.100685  -0.000374  1.025722  0.0
H  H34  1  0.87847961  0.65814964  0.17730267  1  0.087665  0.0001  0.920568  0.0  0.104782  -0.000164  0.977218  0.0  0.104695  -0.000186  0.977784  0.0  0.100871  0.104442  -0.000124  0.977289  0.0
H  H35  1  0.62152408  0.15816064  0.32269031  1  0.08773  -0.000105  0.920635  0.0  0.104848  0.000164  0.977234  0.0  0.104747  0.000186  0.977792  0.0  0.10088  0.104514  0.000124  0.977313  0.0
H  H36  1  0.12152045  0.34184622  0.82269491  1  0.087717  -0.0001  0.920737  0.0  0.10482  0.000163  0.977364  0.0  0.104729  0.000186  0.977929  0.0  0.100908  0.10449  0.000123  0.977436  0.0
H  H37  1  0.37847715  0.84184950  0.67730162  1  0.087677  0.000103  0.920629  0.0  0.104792  -0.000163  0.977268  0.0  0.104705  -0.000186  0.977832  0.0  0.100876  0.104456  -0.000124  0.977339  0.0
H  H38  1  0.90085386  0.37908523  0.09921780  1  0.064566  -0.00011  0.933718  0.0  0.082431  -5.7e-05  0.997702  0.0  0.081224  -2.6e-05  0.999693  0.0  0.104919  0.083011  -8.8e-05  0.996476  0.0
H  H39  1  0.59914790  0.87908981  0.40078208  1  0.064479  0.000105  0.933641  0.0  0.082449  5.7e-05  0.997562  0.0  0.081242  2.6e-05  0.999553  0.0  0.104853  0.08303  8.8e-05  0.996331  0.0
H  H40  1  0.09914898  0.62091158  0.90078224  1  0.064566  0.000123  0.933785  0.0  0.082478  5.7e-05  0.997727  0.0  0.081272  2.6e-05  0.999716  0.0  0.104922  0.083059  8.8e-05  0.996498  0.0
H  H41  1  0.40086434  0.12091271  0.59921807  1  0.064556  -0.000131  0.933628  0.0  0.08245  -5.7e-05  0.997615  0.0  0.081245  -2.7e-05  0.999608  0.0  0.104918  0.083033  -8.8e-05  0.996388  0.0
H  H42  1  0.77166563  0.43562152  0.20633841  1  0.059391  -0.000951  0.934087  -0.001  0.076805  -0.000722  0.995141  -0.001  0.075548  -0.000469  0.996024  -0.001  0.104532  0.07731  -0.000946  0.995022  -0.001
H  H43  1  0.72834179  0.93562637  0.29365599  1  0.059503  0.000948  0.93393  0.001  0.076934  0.000722  0.994992  0.001  0.075679  0.000469  0.995871  0.001  0.104587  0.077439  0.000946  0.994871  0.001
H  H44  1  0.22833573  0.56437625  0.79365756  1  0.059455  0.000965  0.934033  0.001  0.076867  0.000722  0.995083  0.001  0.075607  0.000469  0.99597  0.001  0.104585  0.077372  0.000946  0.99496  0.001
H  H45  1  0.27167289  0.06437901  0.70633691  1  0.059383  -0.000955  0.933955  -0.001  0.076806  -0.000722  0.995046  -0.001  0.075553  -0.000469  0.995925  -0.001  0.104545  0.07731  -0.000946  0.994929  -0.001
C  C46  1  0.74409802  0.60325164  0.02783437  1  0.085794  -0.002084  3.639873  -0.005  0.03174  0.000469  3.907101  -0.002  0.038242  0.000143  3.921932  -0.002  -0.071015  0.027645  0.000754  3.897055  -0.002
C  C47  1  0.75590952  0.10325215  0.47216743  1  0.08598  0.002052  3.639639  0.005  0.031756  -0.000469  3.906938  0.002  0.038236  -0.000143  3.921755  0.002  -0.070949  0.027678  -0.000753  3.896897  0.002
C  C48  1  0.25589667  0.39674803  0.97216314  1  0.085623  0.002005  3.640271  0.005  0.031546  -0.000469  3.907446  0.002  0.038043  -0.000143  3.922279  0.002  -0.071092  0.027464  -0.000755  3.89741  0.002
C  C49  1  0.24409463  0.89675133  0.52783182  1  0.085654  -0.002067  3.639998  -0.005  0.031573  0.000468  3.907272  -0.002  0.038075  0.000143  3.922105  -0.002  -0.071055  0.027481  0.000754  3.897225  -0.002
C  C50  1  0.89416110  0.58610706  0.11376138  1  -0.170797  -0.006158  3.666751  -0.006  -0.207454  -0.00415  3.92124  -0.004  -0.210755  -0.002832  3.936952  -0.003  -0.167961  -0.204837  -0.005187  3.910248  -0.005
C  C51  1  0.60583948  0.08611815  0.38623707  1  -0.170935  0.006169  3.666547  0.006  -0.207504  0.004152  3.920981  0.004  -0.210726  0.002834  3.936594  0.003  -0.168022  -0.204935  0.005188  3.910045  0.005
C  C52  1  0.10583625  0.41388785  0.88623536  1  -0.170663  0.006163  3.666835  0.006  -0.20728  0.004151  3.921242  0.004  -0.210558  0.002834  3.936921  0.003  -0.167944  -0.204704  0.005188  3.910301  0.005
C  C53  1  0.39416196  0.91389009  0.61376134  1  -0.170858  -0.006167  3.666685  -0.006  -0.207499  -0.00415  3.921228  -0.004  -0.210793  -0.002833  3.936935  -0.003  -0.167983  -0.20489  -0.005186  3.910246  -0.005
C  C54  1  0.89498517  0.45259626  0.16237223  1  0.06835  0.001615  3.647269  0.004  0.009285  -9.8e-05  3.925249  0.002  0.016621  0.00055  3.938867  0.003  -0.076904  0.004735  -0.000824  3.916243  0.002
C  C55  1  0.60501700  0.95259881  0.33762134  1  0.068205  -0.001583  3.646766  -0.004  0.008984  9.7e-05  3.924817  -0.002  0.016295  -0.000551  3.938425  -0.003  -0.076932  0.00445  0.000824  3.915819  -0.002
C  C56  1  0.10501627  0.54740436  0.83762618  1  0.068235  -0.001659  3.647191  -0.004  0.009122  9.8e-05  3.925146  -0.002  0.016453  -0.000551  3.93876  -0.003  -0.076956  0.004582  0.000824  3.916149  -0.002
C  C57  1  0.39498828  0.04739991  0.66237145  1  0.068436  0.001657  3.646908  0.004  0.009299  -9.8e-05  3.924995  0.002  0.016625  0.00055  3.93863  0.003  -0.07691  0.004748  -0.000824  3.915991  0.002
C  C58  1  0.15383103  0.86769812  0.04846481  1  0.116372  -0.000371  3.539939  0.0  0.089611  -0.000342  3.871182  0.0  0.106248  -0.00064  3.880495  -0.001  0.008963  0.076257  -0.000142  3.86362  0.0
C  C59  1  0.34616494  0.36770562  0.45154035  1  0.116281  0.00039  3.540552  0.0  0.089499  0.000344  3.871834  0.0  0.106165  0.000638  3.881114  0.001  0.008826  0.076148  0.000142  3.864282  0.0
C  C60  1  0.84616114  0.13230250  0.95153752  1  0.116351  0.000398  3.541002  0.0  0.08961  0.000343  3.872176  0.0  0.106225  0.00064  3.881513  0.001  0.009041  0.076271  0.000143  3.864611  0.0
C  C61  1  0.65384356  0.63229977  0.54846864  1  0.116374  -0.000302  3.540474  0.0  0.089671  -0.000348  3.871593  0.0  0.106279  -0.000649  3.880937  -0.001  0.009056  0.07633  -0.000143  3.86404  0.0
C  C62  1  0.80302565  0.92101718  0.06040586  1  0.130346  -0.009251  3.535034  -0.004  0.103937  -0.001933  3.851755  0.003  0.123857  -0.00358  3.860245  0.001  0.02305  0.089276  -0.000666  3.844152  0.005
C  C63  1  0.69696856  0.42102497  0.43959887  1  0.130376  0.009281  3.5346  0.004  0.103969  0.001935  3.851334  -0.003  0.123906  0.003581  3.859815  -0.001  0.023117  0.089305  0.000667  3.843746  -0.005
C  C64  1  0.19696528  0.07898154  0.93959970  1  0.1304  0.009251  3.534577  0.004  0.103992  0.001939  3.851294  -0.003  0.123917  0.003584  3.859789  -0.001  0.023115  0.089327  0.000665  3.843699  -0.005
C  C65  1  0.30303580  0.57898232  0.56040685  1  0.130408  -0.009202  3.534614  -0.004  0.104012  -0.001939  3.851341  0.003  0.123944  -0.003587  3.859823  0.001  0.023128  0.089351  -0.000666  3.843748  0.005
C  C66  1  0.96375880  0.90752269  0.87089749  1  0.130054  -0.007555  3.531807  -0.003  0.103315  -0.001329  3.855273  0.003  0.123648  -0.002685  3.862008  0.001  0.018356  0.088813  -0.000353  3.848078  0.004
C  C67  1  0.53624011  0.40752238  0.62910675  1  0.12995  0.007437  3.531595  0.003  0.103215  0.001328  3.855056  -0.003  0.123566  0.002688  3.861791  -0.001  0.018405  0.088717  0.000353  3.847874  -0.004
C  C68  1  0.03624285  0.09247317  0.12910738  1  0.130002  0.007475  3.532097  0.003  0.103241  0.001332  3.855601  -0.003  0.123571  0.002688  3.862343  -0.001  0.018286  0.088741  0.000354  3.848408  -0.004
C  C69  1  0.46375348  0.59248206  0.37089802  1  0.129974  -0.007457  3.531993  -0.003  0.103234  -0.001335  3.855477  0.003  0.123573  -0.00269  3.862209  0.001  0.018311  0.088739  -0.000355  3.848289  0.004
N  N70  1  0.56702454  0.61331893  0.07643841  1  -0.592946  0.09208  3.178466  0.113  -0.576942  0.070279  3.450642  0.091  -0.608914  0.056009  3.455082  0.076  -0.631475  -0.556967  0.077637  3.448994  0.097
N  N71  1  0.93297630  0.11332481  0.42356090  1  -0.592997  -0.092072  3.178355  -0.113  -0.576961  -0.070271  3.450566  -0.091  -0.608936  -0.056005  3.455008  -0.076  -0.631478  -0.556984  -0.077626  3.448924  -0.097
N  N72  1  0.43296902  0.38668265  0.92356555  1  -0.592914  -0.092079  3.178443  -0.113  -0.576899  -0.070287  3.450579  -0.091  -0.608899  -0.056014  3.455038  -0.076  -0.631478  -0.556914  -0.077649  3.448919  -0.097
N  N73  1  0.06702777  0.88668343  0.57643592  1  -0.592853  0.092087  3.178419  0.113  -0.576835  0.07028  3.450598  0.091  -0.60881  0.05601  3.455042  0.076  -0.631435  -0.556857  0.077637  3.448952  0.097
N  N74  1  0.04576567  0.42902450  0.24052422  1  -0.563839  -0.108854  3.15631  -0.133  -0.550952  -0.080252  3.429119  -0.102  -0.586227  -0.063288  3.439283  -0.085  -0.619309  -0.529233  -0.089346  3.423723  -0.11
N  N75  1  0.45423050  0.92902735  0.25947138  1  -0.563919  0.108824  3.156169  0.133  -0.551011  0.080254  3.429013  0.102  -0.586284  0.063289  3.439177  0.085  -0.619277  -0.529291  0.089348  3.423618  0.11
N  N76  1  0.95423580  0.57097327  0.75947499  1  -0.563893  0.108846  3.156266  0.133  -0.551009  0.080259  3.429089  0.102  -0.58628  0.063294  3.439244  0.085  -0.619295  -0.529287  0.089355  3.423692  0.11
N  N77  1  0.54576817  0.07097423  0.74052457  1  -0.563998  -0.108832  3.15622  -0.133  -0.551082  -0.080251  3.429053  -0.102  -0.586371  -0.063289  3.439214  -0.085  -0.619312  -0.529359  -0.089344  3.423664  -0.11
N  N78  1  0.25328595  0.78487592  0.07567627  1  -0.545416  0.001429  2.983783  0.004  -0.528614  0.00175  3.309362  0.004  -0.549282  0.001038  3.311061  0.003  -0.440835  -0.512871  0.002332  3.306916  0.004
N  N79  1  0.24671205  0.28488770  0.42433037  1  -0.545362  -0.001445  2.984136  -0.004  -0.528538  -0.001755  3.309682  -0.004  -0.549221  -0.001037  3.311377  -0.003  -0.440785  -0.512801  -0.002333  3.307247  -0.004
N  N80  1  0.74672793  0.21510470  0.92433279  1  -0.545389  -0.001472  2.985047  -0.004  -0.52853  -0.001747  3.310564  -0.004  -0.549216  -0.001035  3.312264  -0.003  -0.440846  -0.512785  -0.002327  3.308113  -0.004
N  N81  1  0.75328423  0.71510816  0.57567444  1  -0.545393  0.001386  2.984709  0.004  -0.528543  0.001751  3.31021  0.004  -0.549204  0.001044  3.311905  0.003  -0.440819  -0.51281  0.00233  3.307768  0.004
N  N82  1  0.67913828  0.87133512  0.09908262  1  -0.504983  0.053433  3.166856  0.066  -0.472662  0.043926  3.501002  0.056  -0.499714  0.038209  3.502663  0.051  -0.442683  -0.455387  0.045886  3.500535  0.057
N  N83  1  0.82085922  0.37133572  0.40091234  1  -0.504964  -0.053471  3.166486  -0.066  -0.472627  -0.043932  3.500615  -0.056  -0.499686  -0.038215  3.502268  -0.051  -0.442708  -0.455347  -0.045892  3.500154  -0.057
N  N84  1  0.32086194  0.12866170  0.90091981  1  -0.505079  -0.053425  3.166495  -0.066  -0.472725  -0.043934  3.500588  -0.056  -0.499806  -0.038213  3.502242  -0.051  -0.442711  -0.455438  -0.045888  3.500127  -0.057
N  N85  1  0.17913550  0.62866681  0.59908598  1  -0.50514  0.05338  3.166589  0.066  -0.472812  0.043934  3.500752  0.056  -0.499866  0.038217  3.502396  0.051  -0.442771  -0.455534  0.045891  3.500291  0.057
N  N86  1  0.94831960  0.84682559  0.79056299  1  -0.531404  0.044853  3.117493  0.056  -0.505383  0.035505  3.458346  0.046  -0.530295  0.030871  3.455476  0.042  -0.451159  -0.488922  0.037268  3.460115  0.047
N  N87  1  0.55168156  0.34681697  0.70944358  1  -0.531379  -0.044752  3.117303  -0.056  -0.505358  -0.035509  3.458169  -0.046  -0.530296  -0.030879  3.455292  -0.042  -0.451263  -0.488902  -0.037274  3.459952  -0.047
N  N88  1  0.05168050  0.15317123  0.20943539  1  -0.531324  -0.044786  3.11741  -0.056  -0.505305  -0.035508  3.458268  -0.046  -0.53022  -0.030873  3.455406  -0.042  -0.451144  -0.488843  -0.037268  3.46004  -0.047
N  N89  1  0.44832157  0.65317604  0.29056536  1  -0.531286  0.044766  3.117555  0.056  -0.505272  0.035509  3.458421  0.046  -0.530177  0.030872  3.455553  0.042  -0.451142  -0.488822  0.037268  3.46019  0.047
