# generated using pymatgen
data_Cu2H10C4S(N4O3)2
_symmetry_space_group_name_H-M   'P 1'
_cell_length_a   6.23330502
_cell_length_b   6.77381773
_cell_length_c   17.09077644
_cell_angle_alpha   90.00080850
_cell_angle_beta   90.00177480
_cell_angle_gamma   104.01885521
_symmetry_Int_Tables_number   1
_chemical_formula_structural   Cu2H10C4S(N4O3)2
_chemical_formula_sum   'Cu4 H20 C8 S2 N16 O12'
_cell_volume   700.13556370
_cell_formula_units_Z   2
loop_
 _symmetry_equiv_pos_site_id
 _symmetry_equiv_pos_as_xyz
  1  'x, y, z'
loop_
 _atom_site_type_symbol
 _atom_site_label
 _atom_site_symmetry_multiplicity
 _atom_site_fract_x
 _atom_site_fract_y
 _atom_site_fract_z
 _atom_site_occupancy
 _atom_site_pbe_bader_spin_density
 _atom_site_pbe_cm5_charge
 _atom_site_pbe_ddec_charge
 _atom_site_pbe_ddec_spin_density
 _atom_site_pbe_ddec_sum_bond_order
 _atom_site_pbe_magmom
Cu  Cu0  1  0.34464214  0.14476517  0.74886941  1  0  0.715586  0.740122  0  2.423922  0
Cu  Cu1  1  0.65533832  0.85523725  0.24888339  1  0  0.715628  0.740105  0  2.42419  0
Cu  Cu2  1  0.35943569  0.64919482  0.76314163  1  0  0.723126  0.778156  0  2.427694  0
Cu  Cu3  1  0.64057753  0.35081181  0.26313124  1  0  0.723075  0.778125  0  2.427882  0
H  H4  1  0.48310092  0.45312048  0.67136425  1  0  0.268066  0.360064  0  1.003241  0
H  H5  1  0.51692371  0.54693686  0.17135463  1  0  0.268037  0.360172  0  1.003129  0
H  H6  1  0.30807011  0.91310966  0.85330526  1  0  0.277279  0.339831  0  0.985965  0
H  H7  1  0.69196515  0.08689655  0.35331284  1  0  0.2772  0.339838  0  0.986  0
H  H8  1  0.63283935  0.20973787  0.95998039  1  0  0.296082  0.301007  0  1.008101  0
H  H9  1  0.36718808  0.79028383  0.45998904  1  0  0.296047  0.300843  0  1.008202  0
H  H10  1  0.53508269  0.33949119  0.88969021  1  0  0.312077  0.278102  0  0.95251  0
H  H11  1  0.46491738  0.66054118  0.38968760  1  0  0.312103  0.278085  0  0.952392  0
H  H12  1  0.12670058  0.18945072  0.58935008  1  0  0.299863  0.289957  0  0.995934  0
H  H13  1  0.87326282  0.81051913  0.08933764  1  0  0.299916  0.290018  0  0.99592  0
H  H14  1  0.15390997  0.94786508  0.59938330  1  0  0.296691  0.300085  0  1.007948  0
H  H15  1  0.84609329  0.05211940  0.09937899  1  0  0.29672  0.300111  0  1.008056  0
H  H16  1  0.92106527  0.60494302  0.87937756  1  0  0.155052  0.142873  0  0.968871  0
H  H17  1  0.07893373  0.39512667  0.37939732  1  0  0.155119  0.142914  0  0.968993  0
H  H18  1  0.86705022  0.97920708  0.83802081  1  0  0.153439  0.13055  0  0.985562  0
H  H19  1  0.13297890  0.02084976  0.33800827  1  0  0.153445  0.13057  0  0.985675  0
H  H20  1  0.86564389  0.70173128  0.68640381  1  0  0.150056  0.155888  0  1.005564  0
H  H21  1  0.13436612  0.29822513  0.18639211  1  0  0.150078  0.15595  0  1.005701  0
H  H22  1  0.80306648  0.30117778  0.64448159  1  0  0.154274  0.156275  0  0.990996  0
H  H23  1  0.19689975  0.69875293  0.14448842  1  0  0.154383  0.156435  0  0.990762  0
C  C24  1  0.95593841  0.46540196  0.85846379  1  0  0.185173  0.097507  0  3.80736  0
C  C25  1  0.04404596  0.53463597  0.35847566  1  0  0.184883  0.097209  0  3.807485  0
C  C26  1  0.92973944  0.14259486  0.83891602  1  0  0.17541  0.079476  0  3.841818  0
C  C27  1  0.07028110  0.85744677  0.33891579  1  0  0.17547  0.0793  0  3.84184  0
C  C28  1  0.79503220  0.83385959  0.68612641  1  0  0.167633  0.071911  0  3.794152  0
C  C29  1  0.20496883  0.16610583  0.18612303  1  0  0.167651  0.071786  0  3.794532  0
C  C30  1  0.76206209  0.14350223  0.66313605  1  0  0.168451  0.06909  0  3.793114  0
C  C31  1  0.23791462  0.85645095  0.16313361  1  0  0.168142  0.068812  0  3.792666  0
S  S32  1  0.21084393  0.56460575  0.57777216  1  0  0.528821  1.385193  0  6.44647  0
S  S33  1  0.78914635  0.43537275  0.07777325  1  0  0.528788  1.384953  0  6.447449  0
N  N34  1  0.12299593  0.24483091  0.81148405  1  0  -0.260056  -0.163958  0  3.595044  0
N  N35  1  0.87701400  0.75519075  0.31148717  1  0  -0.2601  -0.163833  0  3.594891  0
N  N36  1  0.13898106  0.44627098  0.82330448  1  0  -0.257742  -0.158354  0  3.573111  0
N  N37  1  0.86101037  0.55374971  0.32330932  1  0  -0.257709  -0.158356  0  3.573363  0
N  N38  1  0.81950904  0.27674433  0.86759846  1  0  -0.135206  0.21333  0  3.792181  0
N  N39  1  0.18050113  0.72329742  0.36760406  1  0  -0.135093  0.213592  0  3.791629  0
N  N40  1  0.60640253  0.22060666  0.89927326  1  0  -0.488658  -0.545592  0  3.094101  0
N  N41  1  0.39362211  0.77943715  0.39927805  1  0  -0.488631  -0.545412  0  3.093838  0
N  N42  1  0.58199972  0.04299124  0.70054677  1  0  -0.270324  -0.173817  0  3.641169  0
N  N43  1  0.41798746  0.95697796  0.20054864  1  0  -0.270167  -0.173678  0  3.640921  0
N  N44  1  0.60245625  0.85138373  0.71487888  1  0  -0.272312  -0.19608  0  3.669984  0
N  N45  1  0.39755038  0.14859411  0.21487584  1  0  -0.272339  -0.195958  0  3.669865  0
N  N46  1  0.89799931  0.01549293  0.65389057  1  0  -0.133984  0.222007  0  3.779444  0
N  N47  1  0.10198323  0.98446734  0.15388783  1  0  -0.133937  0.222126  0  3.779429  0
N  N48  1  0.11714400  0.07126223  0.62914956  1  0  -0.485219  -0.529003  0  3.175288  0
N  N49  1  0.88283346  0.92871167  0.12914192  1  0  -0.48534  -0.529186  0  3.175387  0
O  O50  1  0.11124416  0.56274314  0.65789727  1  0  -0.38405  -0.69986  0  2.252451  0
O  O51  1  0.88874494  0.43724171  0.15789715  1  0  -0.384009  -0.699633  0  2.252429  0
O  O52  1  0.07043711  0.40141565  0.52909382  1  0  -0.392812  -0.687374  0  2.097316  0
O  O53  1  0.92954458  0.59856438  0.02910259  1  0  -0.392916  -0.687466  0  2.097966  0
O  O54  1  0.43888375  0.53288645  0.58306921  1  0  -0.391797  -0.675746  0  2.137452  0
O  O55  1  0.56110584  0.46709388  0.08306261  1  0  -0.391776  -0.675663  0  2.137476  0
O  O56  1  0.22149065  0.76999411  0.54201486  1  0  -0.373541  -0.658369  0  2.191517  0
O  O57  1  0.77850997  0.22999295  0.04201244  1  0  -0.373464  -0.65834  0  2.191694  0
O  O58  1  0.48660302  0.42849416  0.72961961  1  0  -0.595167  -0.818672  0  2.229815  0
O  O59  1  0.51341216  0.57149982  0.22961241  1  0  -0.595155  -0.818945  0  2.230249  0
O  O60  1  0.24206678  0.87594471  0.80169332  1  0  -0.586183  -0.804541  0  2.223211  0
O  O61  1  0.75793554  0.12405655  0.30169891  1  0  -0.586077  -0.804531  0  2.223301  0
