# generated using pymatgen
data_CdH15C13N5Cl2
_symmetry_space_group_name_H-M   'P 1'
_cell_length_a   9.17163574
_cell_length_b   9.35545778
_cell_length_c   18.57360000
_cell_angle_alpha   90.00000000
_cell_angle_beta   90.00000000
_cell_angle_gamma   107.81889942
_symmetry_Int_Tables_number   1
_chemical_formula_structural   CdH15C13N5Cl2
_chemical_formula_sum   'Cd4 H60 C52 N20 Cl8'
_cell_volume   1517.25256763
_cell_formula_units_Z   4
loop_
 _symmetry_equiv_pos_site_id
 _symmetry_equiv_pos_as_xyz
  1  'x, y, z'
loop_
 _atom_site_type_symbol
 _atom_site_label
 _atom_site_symmetry_multiplicity
 _atom_site_fract_x
 _atom_site_fract_y
 _atom_site_fract_z
 _atom_site_occupancy
 _atom_site_pbe_bader_charge
 _atom_site_pbe_bader_spin_density
 _atom_site_pbe_cm5_charge
 _atom_site_pbe_ddec_charge
 _atom_site_pbe_ddec_spin_density
 _atom_site_pbe_ddec_sum_bond_order
 _atom_site_pbe_magmom
Cd  Cd0  1  0.59810969  0.76725934  0.71292372  1  1.149052  0  0.642354  0.79993  0  2.346027  0
Cd  Cd1  1  0.90188921  0.23273926  0.21292318  1  1.149053  0  0.642339  0.799873  0  2.346031  0
Cd  Cd2  1  0.40189042  0.23274038  0.28707682  1  1.149051  0  0.642339  0.799891  0  2.346044  0
Cd  Cd3  1  0.09811020  0.76725822  0.78707682  1  1.149048  0  0.642365  0.799926  0  2.346014  0
H  H4  1  0.32831061  0.76391690  0.58905759  1  0.107879  0  0.098857  0.110359  0  1.044943  0
H  H5  1  0.17168963  0.23608394  0.08905759  1  0.107888  0  0.098864  0.11037  0  1.044939  0
H  H6  1  0.67168986  0.23608394  0.41094241  1  0.107885  0  0.098865  0.110363  0  1.044949  0
H  H7  1  0.82831189  0.76392027  0.91094295  1  0.107854  0  0.098871  0.110358  0  1.044918  0
H  H8  1  0.14936140  0.69463057  0.48410755  1  0.073717  0  0.102019  0.104108  0  1.008184  0
H  H9  1  0.35064354  0.30537140  0.98410863  1  0.0737  0  0.102016  0.104148  0  1.008162  0
H  H10  1  0.85064124  0.30537028  0.51589245  1  0.073697  0  0.102007  0.104126  0  1.008165  0
H  H11  1  0.64936051  0.69463393  0.01589299  1  0.073656  0  0.102019  0.104145  0  1.008134  0
H  H12  1  0.10485570  0.45208966  0.42151225  1  0.07356  0  0.098646  0.097634  0  1.031625  0
H  H13  1  0.39514924  0.54791231  0.92151333  1  0.073656  0  0.098641  0.097646  0  1.031595  0
H  H14  1  0.89515057  0.54791231  0.57848721  1  0.07365  0  0.098643  0.097669  0  1.03159  0
H  H15  1  0.60485228  0.45209190  0.07848828  1  0.073632  0  0.098629  0.097647  0  1.031578  0
H  H16  1  0.22989427  0.26429765  0.46237078  1  0.095327  0  0.097022  0.110058  0  1.052325  0
H  H17  1  0.27010923  0.73570319  0.96237132  1  0.095361  0  0.097029  0.110056  0  1.052297  0
H  H18  1  0.77011055  0.73570319  0.53762814  1  0.095365  0  0.097016  0.110062  0  1.052336  0
H  H19  1  0.72988867  0.26429990  0.03762814  1  0.095417  0  0.097033  0.110077  0  1.052335  0
H  H20  1  0.44578175  0.16409401  0.51958533  1  0.169778  0  0.121598  0.10516  0  1.013566  0
H  H21  1  0.05421958  0.83590683  0.01958533  1  0.169806  0  0.121578  0.105127  0  1.01359  0
H  H22  1  0.55421693  0.83590458  0.48041575  1  0.169745  0  0.121596  0.105123  0  1.0136  0
H  H23  1  0.94578089  0.16409401  0.98041575  1  0.169752  0  0.121584  0.105153  0  1.013557  0
H  H24  1  0.55341698  0.18608991  0.60154682  1  0.153749  0  0.13063  0.106322  0  1.006912  0
H  H25  1  0.94658411  0.81390869  0.10154628  1  0.153771  0  0.130611  0.106314  0  1.006898  0
H  H26  1  0.44658100  0.81390645  0.39845533  1  0.153754  0  0.130601  0.106292  0  1.00694  0
H  H27  1  0.05341709  0.18609103  0.89845426  1  0.153771  0  0.130615  0.106322  0  1.006903  0
H  H28  1  0.17640922  0.00854080  0.51621764  1  0.110113  0  0.113637  0.125247  0  1.036956  0
H  H29  1  0.32359032  0.99145780  0.01621764  1  0.110121  0  0.113637  0.125259  0  1.036934  0
H  H30  1  0.82358724  0.99146117  0.48378236  1  0.110197  0  0.113657  0.125284  0  1.036907  0
H  H31  1  0.67640618  0.00854080  0.98378236  1  0.110101  0  0.113626  0.125264  0  1.036915  0
H  H32  1  0.98700228  0.81710854  0.61775639  1  0.135627  0  0.105885  0.106373  0  1.055626  0
H  H33  1  0.51299772  0.18289006  0.11775639  1  0.135658  0  0.105893  0.106369  0  1.055626  0
H  H34  1  0.01299530  0.18289006  0.38224200  1  0.135674  0  0.105891  0.106395  0  1.05566  0
H  H35  1  0.48699987  0.81710854  0.88224308  1  0.135632  0  0.105873  0.106359  0  1.055635  0
H  H36  1  0.53242270  0.13970553  0.71541004  1  0.046622  0  0.096268  0.102352  0  1.022734  0
H  H37  1  0.96757621  0.86029307  0.21541004  1  0.046754  0  0.096254  0.102336  0  1.022746  0
H  H38  1  0.46757602  0.86028970  0.28458942  1  0.04678  0  0.096263  0.102353  0  1.022727  0
H  H39  1  0.03242356  0.13970553  0.78458996  1  0.046758  0  0.096259  0.102346  0  1.022737  0
H  H40  1  0.41671477  0.01138586  0.77713314  1  0.053158  0  0.092307  0.105503  0  1.026482  0
H  H41  1  0.08328258  0.98861274  0.27713260  1  0.05317  0  0.092308  0.105521  0  1.026439  0
H  H42  1  0.58328059  0.98861611  0.22286633  1  0.053122  0  0.09233  0.105549  0  1.026339  0
H  H43  1  0.91671352  0.01138810  0.72286794  1  0.053191  0  0.092324  0.105539  0  1.026451  0
H  H44  1  0.36767844  0.31463413  0.74248665  1  0.021988  0  0.081795  0.07051  0  1.03274  0
H  H45  1  0.13232218  0.68536447  0.24248665  1  0.021965  0  0.081783  0.070495  0  1.032736  0
H  H46  1  0.63232421  0.68536671  0.25751228  1  0.022  0  0.081784  0.070498  0  1.032727  0
H  H47  1  0.86767972  0.31463750  0.75751335  1  0.021953  0  0.08178  0.07049  0  1.032726  0
H  H48  1  0.27838339  0.18584964  0.81080243  1  0.028319  0  0.074616  0.07307  0  1.034518  0
H  H49  1  0.22161575  0.81415121  0.31080297  1  0.02833  0  0.074621  0.073063  0  1.034511  0
H  H50  1  0.72161634  0.81415233  0.18919703  1  0.028308  0  0.074603  0.073047  0  1.03452  0
H  H51  1  0.77838397  0.18585076  0.68919811  1  0.028342  0  0.074612  0.073049  0  1.034548  0
H  H52  1  0.49486896  0.39971875  0.86007075  1  0.01232  0  0.08033  0.112616  0  1.026241  0
H  H53  1  0.00513127  0.60028209  0.36007128  1  0.01231  0  0.08032  0.112611  0  1.026242  0
H  H54  1  0.50513189  0.60027985  0.13992872  1  0.012288  0  0.080325  0.112604  0  1.026211  0
H  H55  1  0.99486849  0.39971651  0.63992818  1  0.012145  0  0.080333  0.112649  0  1.026189  0
H  H56  1  0.62425676  0.35270900  0.80119901  1  0.026985  0  0.078383  0.111973  0  1.029263  0
H  H57  1  0.87574433  0.64728960  0.30119955  1  0.026997  0  0.078383  0.11199  0  1.029246  0
H  H58  1  0.37574627  0.64728960  0.19880045  1  0.027009  0  0.078377  0.11198  0  1.029299  0
H  H59  1  0.12425836  0.35270788  0.69879991  1  0.026984  0  0.078405  0.112019  0  1.029233  0
H  H60  1  0.53333368  0.22598476  0.87113161  1  0.019416  0  0.073575  0.099822  0  1.033834  0
H  H61  1  0.96666632  0.77401384  0.37113161  1  0.019419  0  0.073577  0.099825  0  1.033837  0
H  H62  1  0.46666465  0.77401271  0.12886786  1  0.019422  0  0.073566  0.099798  0  1.033837  0
H  H63  1  0.03333165  0.22598252  0.62886893  1  0.019406  0  0.073574  0.099815  0  1.033851  0
C  C64  1  0.37692793  0.55076635  0.58447905  1  0.375379  0  0.09139  0.105576  0  4.065675  0
C  C65  1  0.12306943  0.44923225  0.08447689  1  0.375056  0  0.091413  0.105614  0  4.06558  0
C  C66  1  0.62307075  0.44923225  0.41552203  1  0.375039  0  0.09143  0.105644  0  4.065551  0
C  C67  1  0.87692707  0.55076635  0.91552203  1  0.375042  0  0.091349  0.105565  0  4.06546  0
C  C68  1  0.30480216  0.65574844  0.56238048  1  -0.030508  0  -0.086644  -0.13962  0  3.969312  0
C  C69  1  0.19519772  0.34425128  0.06237994  1  -0.030479  0  -0.086643  -0.139637  0  3.969314  0
C  C70  1  0.69519940  0.34425241  0.43761899  1  -0.030455  0  -0.086635  -0.139603  0  3.96925  0
C  C71  1  0.80480345  0.65575181  0.93762060  1  -0.030516  0  -0.0866  -0.139609  0  3.969031  0
C  C72  1  0.20593717  0.61573120  0.50414244  1  0.014588  0  -0.090627  -0.086718  0  3.992486  0
C  C73  1  0.29406524  0.38426964  0.00414298  1  0.014607  0  -0.090644  -0.08678  0  3.992489  0
C  C74  1  0.79406656  0.38426964  0.49585756  1  0.014595  0  -0.090609  -0.08671  0  3.992419  0
C  C75  1  0.70593737  0.61573457  0.99585810  1  0.014627  0  -0.090597  -0.086634  0  3.992262  0
C  C76  1  0.17873858  0.47594933  0.46876050  1  -0.031302  0  -0.084192  -0.064303  0  3.99307  0
C  C77  1  0.32126528  0.52405264  0.96876104  1  -0.03132  0  -0.084146  -0.06427  0  3.992945  0
C  C78  1  0.82126551  0.52405264  0.53123896  1  -0.031329  0  -0.084193  -0.064382  0  3.99304  0
C  C79  1  0.67873262  0.47595045  0.03123896  1  -0.031314  0  -0.084161  -0.064403  0  3.992896  0
C  C80  1  0.24663344  0.36975017  0.49102813  1  -0.021637  0  -0.095052  -0.160711  0  3.982178  0
C  C81  1  0.25336644  0.63024955  0.99102759  1  -0.021784  0  -0.095123  -0.160829  0  3.98221  0
C  C82  1  0.75336920  0.63025067  0.50897187  1  -0.02178  0  -0.09506  -0.160767  0  3.982177  0
C  C83  1  0.74663111  0.36975242  0.00897187  1  -0.021775  0  -0.095103  -0.160786  0  3.982102  0
C  C84  1  0.34588623  0.41020641  0.55000215  1  0.355414  0  0.106121  0.084039  0  4.016476  0
C  C85  1  0.15411474  0.58979332  0.05000162  1  0.356408  0  0.106147  0.084167  0  4.01642  0
C  C86  1  0.65411607  0.58979332  0.44999731  1  0.356455  0  0.106096  0.08412  0  4.016429  0
C  C87  1  0.84588245  0.41020753  0.94999731  1  0.356427  0  0.106082  0.084105  0  4.016473  0
C  C88  1  0.44605780  0.19026431  0.57726020  1  0.593621  0  0.061546  -0.005031  0  3.865689  0
C  C89  1  0.05394248  0.80973316  0.07725966  1  0.593593  0  0.061529  -0.005021  0  3.865694  0
C  C90  1  0.55394053  0.80973316  0.42274088  1  0.593646  0  0.061522  -0.00494  0  3.865584  0
C  C91  1  0.94605729  0.19026543  0.92274088  1  0.593655  0  0.061564  -0.005018  0  3.865656  0
C  C92  1  0.18734012  0.99551768  0.57380099  1  0.309926  0  -0.005542  -0.106356  0  3.926562  0
C  C93  1  0.31265941  0.00448092  0.07380152  1  0.309918  0  -0.00553  -0.106374  0  3.926563  0
C  C94  1  0.81265637  0.00448092  0.42619955  1  0.309869  0  -0.005483  -0.106236  0  3.926405  0
C  C95  1  0.68733705  0.99552105  0.92619901  1  0.309907  0  -0.005555  -0.106375  0  3.926442  0
C  C96  1  0.09782071  0.90091659  0.62363839  1  0.376512  0  -0.00963  -0.031662  0  4.036806  0
C  C97  1  0.40217921  0.09907976  0.12363839  1  0.376531  0  -0.009626  -0.031616  0  4.036796  0
C  C98  1  0.90218167  0.09907639  0.37636107  1  0.376492  0  -0.009682  -0.031845  0  4.036822  0
C  C99  1  0.59781689  0.90092108  0.87636107  1  0.376526  0  -0.009606  -0.031688  0  4.03679  0
C  C100  1  0.30408013  0.03434059  0.68133049  1  0.968878  0  0.223552  0.301667  0  3.91623  0
C  C101  1  0.19592084  0.96565914  0.18133049  1  0.968865  0  0.223578  0.301699  0  3.916189  0
C  C102  1  0.69591998  0.96565914  0.31866897  1  0.968881  0  0.223514  0.301642  0  3.916197  0
C  C103  1  0.80407853  0.03434171  0.81866951  1  0.968881  0  0.223564  0.301693  0  3.916275  0
C  C104  1  0.41689313  0.10102213  0.73886161  1  0.025427  0  -0.160758  -0.254289  0  3.956998  0
C  C105  1  0.08310566  0.89897759  0.23886107  1  0.025638  0  -0.160763  -0.254329  0  3.956985  0
C  C106  1  0.58310624  0.89897872  0.26113785  1  0.02529  0  -0.160777  -0.254394  0  3.95684  0
C  C107  1  0.91689372  0.10102325  0.76113947  1  0.025631  0  -0.160761  -0.254347  0  3.957011  0
C  C108  1  0.38513157  0.23116291  0.78023323  1  0.005669  0  -0.172928  -0.084188  0  3.93652  0
C  C109  1  0.11486796  0.76883569  0.28023216  1  0.005318  0  -0.172914  -0.084148  0  3.936494  0
C  C110  1  0.61486854  0.76883681  0.21976623  1  0.005661  0  -0.172884  -0.084098  0  3.936375  0
C  C111  1  0.88513251  0.23116515  0.71976784  1  0.005327  0  -0.172901  -0.084132  0  3.936438  0
C  C112  1  0.51670342  0.30615059  0.83108767  1  -0.05239  0  -0.252618  -0.344213  0  3.934597  0
C  C113  1  0.98329693  0.69384913  0.33108821  1  -0.052386  0  -0.252619  -0.344241  0  3.934582  0
C  C114  1  0.48329744  0.69384801  0.16891179  1  -0.052393  0  -0.252602  -0.3442  0  3.934601  0
C  C115  1  0.01670428  0.30615059  0.66891179  1  -0.052209  0  -0.252641  -0.34428  0  3.934546  0
N  N116  1  0.48523514  0.55695049  0.63698906  1  -0.592628  0  -0.201961  -0.193043  0  3.467477  0
N  N117  1  0.01476475  0.44304924  0.13698852  1  -0.59262  0  -0.201903  -0.192981  0  3.467334  0
N  N118  1  0.51476498  0.44304924  0.36301148  1  -0.59263  0  -0.201912  -0.193016  0  3.467354  0
N  N119  1  0.98523463  0.55695161  0.86301202  1  -0.592063  0  -0.20188  -0.192966  0  3.467395  0
N  N120  1  0.52006735  0.43203276  0.63764644  1  -0.052469  0  -0.059634  -0.035828  0  3.147106  0
N  N121  1  0.97993335  0.56796808  0.13764644  1  -0.052448  0  -0.059668  -0.035874  0  3.147086  0
N  N122  1  0.47993168  0.56796696  0.36235409  1  -0.052463  0  -0.059656  -0.035819  0  3.14706  0
N  N123  1  0.02006638  0.43203389  0.86235463  1  -0.052975  0  -0.05966  -0.035853  0  3.147173  0
N  N124  1  0.43725074  0.34143317  0.58564522  1  -0.78087  0  -0.12757  0.064606  0  3.722097  0
N  N125  1  0.06274770  0.65856543  0.08564414  1  -0.781599  0  -0.127575  0.06455  0  3.722155  0
N  N126  1  0.56274758  0.65856431  0.41435586  1  -0.781581  0  -0.127606  0.064445  0  3.722221  0
N  N127  1  0.93724915  0.34143429  0.91435586  1  -0.781576  0  -0.127618  0.064482  0  3.722215  0
N  N128  1  0.31738650  0.07887691  0.61057146  1  -1.203698  0  -0.240752  -0.027533  0  3.717643  0
N  N129  1  0.18261412  0.92112169  0.11057146  1  -1.203691  0  -0.240749  -0.02752  0  3.717567  0
N  N130  1  0.68261327  0.92112169  0.38942801  1  -1.20367  0  -0.24072  -0.027547  0  3.717608  0
N  N131  1  0.81738346  0.07887691  0.88942908  1  -1.203685  0  -0.240688  -0.027441  0  3.717481  0
N  N132  1  0.17123580  0.92537693  0.68966652  1  -1.21901  0  -0.358776  -0.345004  0  3.496762  0
N  N133  1  0.32876482  0.07462167  0.18966705  1  -1.219041  0  -0.358789  -0.345032  0  3.496783  0
N  N134  1  0.82876654  0.07461942  0.31033241  1  -1.219051  0  -0.358768  -0.34493  0  3.496696  0
N  N135  1  0.67123564  0.92537918  0.81033295  1  -1.219044  0  -0.358813  -0.345026  0  3.496792  0
Cl  Cl136  1  0.65441955  0.94069917  0.60592131  1  -0.681445  0  -0.323338  -0.528745  0  1.111039  0
Cl  Cl137  1  0.84557900  0.05929831  0.10592131  1  -0.681451  0  -0.323313  -0.528703  0  1.11102  0
Cl  Cl138  1  0.34558095  0.05929831  0.39407869  1  -0.681455  0  -0.323307  -0.528697  0  1.111033  0
Cl  Cl139  1  0.15441967  0.94070029  0.89407869  1  -0.68145  0  -0.323341  -0.528744  0  1.111032  0
Cl  Cl140  1  0.82545310  0.65857104  0.72788259  1  -0.637064  0  -0.300524  -0.489702  0  1.277441  0
Cl  Cl141  1  0.67454799  0.34142756  0.22788259  1  -0.637074  0  -0.300524  -0.48969  0  1.277451  0
Cl  Cl142  1  0.17454776  0.34142756  0.27211795  1  -0.637058  0  -0.30052  -0.489676  0  1.277434  0
Cl  Cl143  1  0.32545177  0.65857104  0.77211741  1  -0.63707  0  -0.300525  -0.489695  0  1.277448  0
