# generated using pymatgen
data_VH22C28N2O3
_symmetry_space_group_name_H-M   'P 1'
_cell_length_a   7.44427485
_cell_length_b   12.95261979
_cell_length_c   13.14176726
_cell_angle_alpha   97.82514916
_cell_angle_beta   90.11637724
_cell_angle_gamma   94.89246878
_symmetry_Int_Tables_number   1
_chemical_formula_structural   VH22C28N2O3
_chemical_formula_sum   'V2 H44 C56 N4 O6'
_cell_volume   1250.67378316
_cell_formula_units_Z   2
loop_
 _symmetry_equiv_pos_site_id
 _symmetry_equiv_pos_as_xyz
  1  'x, y, z'
loop_
 _atom_site_type_symbol
 _atom_site_label
 _atom_site_symmetry_multiplicity
 _atom_site_fract_x
 _atom_site_fract_y
 _atom_site_fract_z
 _atom_site_occupancy
 _atom_site_pbe_bader_charge
 _atom_site_pbe_bader_spin_density
 _atom_site_pbe_cm5_charge
 _atom_site_pbe_ddec_charge
 _atom_site_pbe_ddec_spin_density
 _atom_site_pbe_ddec_sum_bond_order
 _atom_site_pbe_magmom
V  V0  1  0.71677257  0.83959269  0.88794994  1  1.990321  -0.965838  1.413328  1.621958  -1.005606  3.126843  -0.977
V  V1  1  0.21905831  0.85046258  0.86102214  1  1.983286  -0.962057  1.413873  1.621301  -0.999824  3.124362  -0.973
H  H2  1  0.57804258  0.55488258  0.04277042  1  0.033752  -0.000304  0.095424  0.103696  -0.000208  1.035205  0.0
H  H3  1  0.16089977  0.13247423  0.70360257  1  0.05716  -0.00032  0.096019  0.104121  -0.000225  1.035659  0.0
H  H4  1  0.50530980  0.37161323  0.96345456  1  0.073459  5.2e-05  0.096559  0.089996  4.7e-05  1.034523  0.0
H  H5  1  0.14202601  0.31618099  0.78037387  1  0.078641  8.1e-05  0.095582  0.087328  7.1e-05  1.046718  0.0
H  H6  1  0.49529198  0.32582797  0.77221101  1  0.092398  -3.4e-05  0.09237  0.093187  -1.7e-05  1.035499  0.0
H  H7  1  0.13022060  0.36321435  0.97172001  1  0.074446  -5.2e-05  0.095073  0.096345  -3.2e-05  1.016136  0.0
H  H8  1  0.53591217  0.46891313  0.66359320  1  0.012261  -0.000317  0.099126  0.092717  -0.000218  1.003881  0.0
H  H9  1  0.13769554  0.22242793  0.08207571  1  0.063521  -0.00032  0.099625  0.094449  -0.000225  1.00446  0.0
H  H10  1  0.55953975  0.63800716  0.63978975  1  0.099543  -0.001024  0.11669  0.077278  -0.000593  0.994584  0.0
H  H11  1  0.12367729  0.05402170  0.10809583  1  0.119289  -0.001053  0.11671  0.077974  -0.00062  0.995322  0.0
H  H12  1  0.72734988  0.02236093  0.20588083  1  0.066823  -0.000277  0.101288  0.115705  -0.000197  1.016808  0.0
H  H13  1  0.18002371  0.66354547  0.54478154  1  0.077308  -0.000262  0.100239  0.114123  -0.00018  1.016353  0.0
H  H14  1  0.69941279  0.21156272  0.25759292  1  0.038556  7.7e-05  0.095058  0.086801  6.6e-05  1.007685  0.0
H  H15  1  0.05461661  0.48004491  0.49381856  1  0.04994  6.8e-05  0.094376  0.085317  6.6e-05  1.008431  0.0
H  H16  1  0.67731179  0.33070247  0.12316593  1  0.024159  -1.5e-05  0.091169  0.089874  -7e-06  1.031973  0.0
H  H17  1  0.94476005  0.36998984  0.62822681  1  0.058816  -4.7e-05  0.091247  0.091445  -3.6e-05  1.030592  0.0
H  H18  1  0.68810036  0.25581958  0.93895543  1  0.055621  -0.000243  0.099264  0.092356  -0.000166  1.03399  0.0
H  H19  1  0.97754759  0.44559154  0.81245974  1  0.075716  -0.000154  0.101312  0.096435  -8.5e-05  1.015443  0.0
H  H20  1  0.71533347  0.12890026  0.81047960  1  0.08442  -0.000615  0.115516  0.075638  -0.000344  1.002102  0.0
H  H21  1  0.09466171  0.56521622  0.94074227  1  0.086789  -0.000407  0.11546  0.074559  -0.000209  1.010072  0.0
H  H22  1  0.47198166  0.86358942  0.67915462  1  0.105013  -0.000397  0.122085  0.086564  -0.00022  0.993  0.0
H  H23  1  0.96816852  0.82880589  0.07032991  1  0.075869  -0.0004  0.121425  0.085063  -0.000194  0.994079  0.0
H  H24  1  0.90356924  0.75095132  0.58314598  1  0.090849  -0.000186  0.102185  0.109919  -7.3e-05  1.026556  0.0
H  H25  1  0.88319543  0.85676416  0.23741167  1  0.051905  -0.000253  0.100369  0.102175  -0.000207  1.016121  0.0
H  H26  1  0.94059572  0.67716505  0.40012628  1  0.061781  -3e-06  0.096281  0.09333  1e-05  1.017006  0.0
H  H27  1  0.94365460  0.92870735  0.41987621  1  0.066808  -2.5e-05  0.094629  0.091538  -1.3e-05  1.044913  0.0
H  H28  1  0.69616201  0.68287778  0.27308080  1  0.033475  -6.3e-05  0.091933  0.083598  -5.8e-05  1.043616  0.0
H  H29  1  0.25096258  0.01198765  0.47485622  1  0.053271  -6.1e-05  0.092358  0.084096  -5.6e-05  1.044129  0.0
H  H30  1  0.41188456  0.76275182  0.32925573  1  0.076458  -2.4e-05  0.09485  0.092421  -1e-05  1.041548  0.0
H  H31  1  0.49461822  0.01863151  0.34718291  1  0.079036  -4e-06  0.095665  0.091508  8e-06  1.020791  0.0
H  H32  1  0.37417118  0.83348817  0.51226472  1  0.057409  -0.000264  0.100184  0.102038  -0.000217  1.013572  0.0
H  H33  1  0.43396387  0.94313049  0.16437740  1  0.089208  -0.000196  0.102045  0.110192  -6.9e-05  1.02919  0.0
H  H34  1  0.87879307  0.92260717  0.69021339  1  0.085139  5e-06  0.12295  0.093863  0.000278  0.963049  0.0
H  H35  1  0.35671590  0.76889144  0.05660747  1  0.108967  3.9e-05  0.123052  0.095178  0.000301  0.964289  0.0
H  H36  1  0.42788673  0.04079576  0.69004763  1  0.075799  -0.00022  0.103889  0.110315  -2.3e-05  1.03793  0.0
H  H37  1  0.86933881  0.65454536  0.07002412  1  0.086038  -0.000252  0.104871  0.111037  -9e-05  1.031076  0.0
H  H38  1  0.37398570  0.18298477  0.58740573  1  0.035233  -9e-06  0.100877  0.094081  7e-06  1.005125  0.0
H  H39  1  0.78285025  0.51258108  0.17423597  1  0.041532  -2e-05  0.09751  0.087865  -4e-06  1.017848  0.0
H  H40  1  0.61287721  0.24770142  0.47403368  1  0.059855  -4.4e-05  0.100052  0.093882  -3e-05  0.999518  0.0
H  H41  1  0.01391708  0.44290677  0.27709294  1  0.038024  -3.8e-05  0.098411  0.092203  -2.3e-05  1.001902  0.0
H  H42  1  0.91047110  0.17086968  0.46581616  1  0.078662  -1.3e-05  0.100146  0.095513  -0.0  0.999265  0.0
H  H43  1  0.33494056  0.51707380  0.27558374  1  0.047025  -3.3e-05  0.100493  0.097227  -1.8e-05  0.996471  0.0
H  H44  1  0.96716258  0.03357967  0.57427849  1  0.067984  -0.000172  0.103121  0.101056  -0.000159  1.019246  0.0
H  H45  1  0.42181278  0.65591344  0.16688463  1  0.052244  -0.000207  0.103038  0.100887  -0.000188  1.017407  0.0
C  C46  1  0.60352952  0.61783511  0.89994345  1  0.642951  -0.00448  0.094962  0.335216  -0.004626  4.073999  -0.005
C  C47  1  0.16883624  0.07160524  0.84735450  1  0.587231  -0.004513  0.096331  0.337153  -0.00463  4.072138  -0.005
C  C48  1  0.57235942  0.53494927  0.95951778  1  -0.052496  0.001636  -0.116132  -0.224891  0.001953  3.984779  0.001
C  C49  1  0.15932940  0.15334821  0.78670750  1  -0.046192  0.001785  -0.115076  -0.225947  0.002108  3.985084  0.001
C  C50  1  0.53319750  0.43245054  0.91458755  1  -0.048969  -0.001044  -0.090382  -0.048051  -0.000872  4.039073  -0.001
C  C51  1  0.14637400  0.25587770  0.83032764  1  -0.062407  -0.001011  -0.089711  -0.047475  -0.000847  4.039021  -0.001
C  C52  1  0.52448666  0.40672956  0.80717754  1  -0.055687  0.001084  -0.116538  -0.134549  0.001124  4.06186  0.001
C  C53  1  0.14086308  0.28250694  0.93746065  1  -0.032016  0.000983  -0.114452  -0.132131  0.001019  4.064524  0.001
C  C54  1  0.54808844  0.48652469  0.74709992  1  -0.019466  -0.001481  -0.083673  -0.087586  -0.001241  4.018124  -0.001
C  C55  1  0.14719234  0.20401374  0.99877906  1  -0.111691  -0.001409  -0.082273  -0.088221  -0.001171  4.016006  -0.001
C  C56  1  0.58631108  0.59232508  0.79029223  1  -0.005925  0.000655  -0.029917  -0.091107  0.00043  4.009563  0.001
C  C57  1  0.16085491  0.09843562  0.95692743  1  0.053347  0.000576  -0.031425  -0.093665  0.000358  4.010968  0.001
C  C58  1  0.59485134  0.66869972  0.72005290  1  0.584819  -0.004751  0.086771  0.141086  -0.004538  3.94229  -0.004
C  C59  1  0.14907728  0.02278419  0.02795650  1  0.58313  -0.004734  0.087336  0.139952  -0.004577  3.939782  -0.004
C  C60  1  0.71245567  0.02856739  0.04342733  1  0.612459  -0.00393  0.098902  0.340706  -0.003765  4.065207  -0.004
C  C61  1  0.14608387  0.66150615  0.70693397  1  0.681916  -0.00354  0.098434  0.339325  -0.003336  4.068595  -0.004
C  C62  1  0.71417984  0.07409120  0.14793935  1  0.03318  0.001148  -0.113931  -0.229562  0.001412  3.983046  0.001
C  C63  1  0.13436501  0.61488124  0.60278287  1  -0.061613  7.3e-05  -0.113435  -0.227707  0.000353  3.981474  0.0
C  C64  1  0.70009634  0.18026764  0.17608505  1  -0.155478  -0.000616  -0.092176  -0.052803  -0.000519  4.061337  0.0
C  C65  1  0.06456639  0.51203414  0.57513982  1  -0.117834  -0.000542  -0.092303  -0.050664  -0.000457  4.05617  0.0
C  C66  1  0.68704724  0.24719918  0.10127598  1  -0.011422  0.000637  -0.119792  -0.140797  0.000671  4.081727  0.0
C  C67  1  0.00436766  0.44980101  0.65003645  1  -0.03644  -0.000627  -0.119743  -0.141412  -0.000546  4.076173  0.0
C  C68  1  0.69102363  0.20517759  0.99868490  1  -0.063394  -0.001048  -0.085637  -0.08937  -0.000878  4.018261  -0.001
C  C69  1  0.02261631  0.49213095  0.75258487  1  -0.052154  -0.00099  -0.083466  -0.089559  -0.000846  4.014228  -0.001
C  C70  1  0.70271408  0.09743901  0.96710573  1  0.061398  0.000144  -0.029886  -0.087113  0.000139  4.005045  0.0
C  C71  1  0.09595824  0.59577540  0.78369871  1  0.010555  -0.000622  -0.029376  -0.083125  -0.000474  4.000916  0.0
C  C72  1  0.71318924  0.06538853  0.85803669  1  0.62188  -0.004763  0.086175  0.140901  -0.00438  3.937033  -0.005
C  C73  1  0.12325249  0.62728816  0.89242042  1  0.614704  -0.005611  0.086076  0.140858  -0.005083  3.934499  -0.005
C  C74  1  0.61150112  0.84188529  0.66977087  1  0.302042  -0.002831  0.017224  0.045424  -0.002246  3.850028  -0.003
C  C75  1  0.11442869  0.85008152  0.07921317  1  0.33312  -0.002717  0.018341  0.047373  -0.002163  3.848799  -0.003
C  C76  1  0.63610436  0.79708459  0.55925757  1  -0.067911  0.000478  -0.015742  0.055901  0.000718  3.982292  0.0
C  C77  1  0.15420872  0.89525204  0.18943679  1  -0.061496  0.000471  -0.015646  0.056797  0.000714  3.983209  0.0
C  C78  1  0.79595289  0.75331891  0.52726896  1  -0.065376  -0.000652  -0.093419  -0.138001  -0.00051  3.966548  0.0
C  C79  1  0.01729501  0.89217761  0.26177400  1  -0.055846  -0.000553  -0.092296  -0.132385  -0.000499  3.986033  0.0
C  C80  1  0.81627508  0.71136224  0.42487068  1  -0.031799  3.6e-05  -0.094315  -0.080117  3.5e-05  4.030042  0.0
C  C81  1  0.05139319  0.93336692  0.36436905  1  -0.054747  6.2e-05  -0.099007  -0.084383  8e-05  4.026414  0.0
C  C82  1  0.67805063  0.71440331  0.35331741  1  -0.100383  -0.000582  -0.100567  -0.100698  -0.00052  4.02831  0.0
C  C83  1  0.22270131  0.97957918  0.39488285  1  -0.068304  -0.000536  -0.099931  -0.097976  -0.000478  4.025068  0.0
C  C84  1  0.51941948  0.75886818  0.38454371  1  -0.034391  6.3e-05  -0.097679  -0.081609  8.1e-05  4.023899  0.0
C  C85  1  0.36046092  0.98324493  0.32286794  1  -0.103265  2.9e-05  -0.09401  -0.078112  2.9e-05  4.027049  0.0
C  C86  1  0.49836104  0.79925580  0.48739671  1  -0.01532  -0.000603  -0.091582  -0.131328  -0.000546  3.98367  0.0
C  C87  1  0.32677244  0.94045845  0.22069968  1  0.012511  -0.000617  -0.093049  -0.139361  -0.000479  3.96676  0.0
C  C88  1  0.73862301  0.94277197  0.70213483  1  0.30244  -0.002619  0.018773  0.043801  -0.002373  3.843099  -0.002
C  C89  1  0.21020068  0.74871905  0.04676998  1  0.292827  -0.002544  0.017593  0.039406  -0.002408  3.845961  -0.002
C  C90  1  0.70212743  0.02783903  0.63872858  1  -0.061249  0.000328  -0.009552  0.063781  0.000594  3.96052  0.0
C  C91  1  0.15262922  0.66433408  0.11157307  1  -0.078143  0.000262  -0.010106  0.0649  0.000536  3.957828  0.0
C  C92  1  0.53425957  0.06991666  0.64148667  1  0.00238  -0.000661  -0.089618  -0.136069  -0.000564  3.955309  0.0
C  C93  1  0.97180600  0.62413883  0.11472199  1  -0.042309  -0.000537  -0.090227  -0.138736  -0.000447  3.958489  0.0
C  C94  1  0.50374814  0.14938106  0.58338048  1  -0.038093  -7.5e-05  -0.092518  -0.08007  -6.7e-05  4.032971  0.0
C  C95  1  0.92322604  0.54443672  0.17346279  1  -0.037456  -0.000141  -0.092232  -0.080225  -0.000124  4.034867  0.0
C  C96  1  0.63837726  0.18620819  0.51994966  1  -0.126479  -0.000665  -0.09311  -0.092098  -0.000592  4.031428  0.0
C  C97  1  0.05305462  0.50514640  0.23126617  1  -0.016982  -0.000577  -0.094077  -0.090587  -0.000517  4.028607  0.0
C  C98  1  0.80494553  0.14384252  0.51588610  1  -0.026683  0.000114  -0.09504  -0.084913  0.000122  4.036716  0.0
C  C99  1  0.23268670  0.54584609  0.22968348  1  -0.02663  5.9e-05  -0.095407  -0.08561  6.9e-05  4.03057  0.0
C  C100  1  0.83657695  0.06603646  0.57604909  1  -0.057812  -0.000788  -0.088507  -0.132538  -0.000691  3.99186  0.0
C  C101  1  0.28155278  0.62426204  0.16929470  1  -0.065734  -0.000785  -0.088176  -0.130712  -0.000683  3.988565  -0.001
N  N102  1  0.63480539  0.76820704  0.74409304  1  -1.168184  -0.005647  -0.414206  -0.336715  0.000848  3.525032  0.014
N  N103  1  0.15895976  0.92318485  0.00437806  1  -1.180656  -0.006125  -0.413621  -0.335303  0.000446  3.521042  0.013
N  N104  1  0.72163172  0.97060086  0.81394328  1  -1.181208  -0.005363  -0.408004  -0.325127  0.001236  3.514446  0.014
N  N105  1  0.17987179  0.72006734  0.93532439  1  -1.187231  -0.004364  -0.408056  -0.32436  0.002282  3.51356  0.014
O  O106  1  0.93264749  0.82521117  0.86390438  1  -0.910796  0.072559  -0.624681  -0.824008  0.079667  1.974748  0.075
O  O107  1  0.43924279  0.86539445  0.88495326  1  -0.903173  0.072143  -0.626348  -0.82104  0.078792  1.970113  0.074
O  O108  1  0.64272034  0.71296326  0.94864245  1  -1.140063  -0.032061  -0.388094  -0.572451  -0.02552  2.346755  -0.009
O  O109  1  0.18106637  0.97627473  0.79956833  1  -1.137516  -0.031619  -0.388448  -0.572177  -0.025197  2.350691  -0.009
O  O110  1  0.72242954  0.92688865  0.02247471  1  -1.126861  -0.033781  -0.384686  -0.563993  -0.02717  2.341382  -0.011
O  O111  1  0.20238472  0.76130307  0.72746482  1  -1.141414  -0.036268  -0.383362  -0.564295  -0.029646  2.344329  -0.014
