# generated using pymatgen
data_CdH4(C2O)4
_symmetry_space_group_name_H-M   'P 1'
_cell_length_a   7.04125578
_cell_length_b   8.34092145
_cell_length_c   13.77429378
_cell_angle_alpha   106.68091152
_cell_angle_beta   89.99966725
_cell_angle_gamma   89.99995544
_symmetry_Int_Tables_number   1
_chemical_formula_structural   CdH4(C2O)4
_chemical_formula_sum   'Cd4 H16 C32 O16'
_cell_volume   774.92899006
_cell_formula_units_Z   4
loop_
 _symmetry_equiv_pos_site_id
 _symmetry_equiv_pos_as_xyz
  1  'x, y, z'
loop_
 _atom_site_type_symbol
 _atom_site_label
 _atom_site_symmetry_multiplicity
 _atom_site_fract_x
 _atom_site_fract_y
 _atom_site_fract_z
 _atom_site_occupancy
 _atom_site_hle17_bader_spin_density
 _atom_site_hle17_ddec_charge
 _atom_site_hle17_ddec_spin_density
 _atom_site_hle17_ddec_sum_bond_order
 _atom_site_hle17_magmom
 _atom_site_hse06_10hf_bader_spin_density
 _atom_site_hse06_10hf_ddec_charge
 _atom_site_hse06_10hf_ddec_spin_density
 _atom_site_hse06_10hf_ddec_sum_bond_order
 _atom_site_hse06_10hf_magmom
 _atom_site_hse06_bader_spin_density
 _atom_site_hse06_ddec_charge
 _atom_site_hse06_ddec_spin_density
 _atom_site_hse06_ddec_sum_bond_order
 _atom_site_hse06_magmom
 _atom_site_pbe_bader_spin_density
 _atom_site_pbe_cm5_charge
 _atom_site_pbe_ddec_charge
 _atom_site_pbe_ddec_spin_density
 _atom_site_pbe_ddec_sum_bond_order
 _atom_site_pbe_magmom
Cd  Cd0  1  0.39125354  0.21380919  0.07611174  1  0  1.292681  0  1.544781  0  0  1.119401  0  1.986821  0  0  1.181808  0  1.925495  0  0  0.797163  1.074259  0  2.029198  0
Cd  Cd1  1  0.10874688  0.71380644  0.07611173  1  0  1.292719  0  1.544746  0  0  1.119429  0  1.986799  0  0  1.181831  0  1.925473  0  0  0.797163  1.074287  0  2.029175  0
Cd  Cd2  1  0.60874659  0.78619319  0.92389011  1  0  1.292685  0  1.544773  0  0  1.119415  0  1.986795  0  0  1.18182  0  1.925471  0  0  0.797159  1.074275  0  2.029171  0
Cd  Cd3  1  0.89125325  0.28619212  0.92388658  1  0  1.292693  0  1.544786  0  0  1.119402  0  1.986832  0  0  1.181805  0  1.925507  0  0  0.797148  1.074263  0  2.029208  0
H  H4  1  0.15321755  0.19609821  0.38507855  1  0  0.096588  0  0.955721  0  0  0.107255  0  1.016626  0  0  0.110266  0  1.015141  0  0  0.104136  0.105102  0  1.017753  0
H  H5  1  0.34678364  0.69609367  0.38507753  1  0  0.096599  0  0.95572  0  0  0.107229  0  1.01666  0  0  0.110237  0  1.01518  0  0  0.104154  0.105076  0  1.017787  0
H  H6  1  0.84678400  0.80390417  0.61492330  1  0  0.096602  0  0.955711  0  0  0.107261  0  1.016626  0  0  0.11027  0  1.015142  0  0  0.104147  0.105108  0  1.017754  0
H  H7  1  0.65321365  0.30390490  0.61492151  1  0  0.096617  0  0.955712  0  0  0.107257  0  1.016638  0  0  0.110266  0  1.015155  0  0  0.104157  0.105104  0  1.017765  0
H  H8  1  0.51630781  0.94811118  0.28750708  1  0  0.112947  0  0.963709  0  0  0.120442  0  1.026556  0  0  0.124309  0  1.024471  0  0  0.104007  0.117611  0  1.02818  0
H  H9  1  0.98369627  0.44811237  0.28750220  1  0  0.112934  0  0.96362  0  0  0.120422  0  1.026488  0  0  0.124288  0  1.024406  0  0  0.104015  0.117617  0  1.028079  0
H  H10  1  0.48369232  0.05188995  0.71249456  1  0  0.112942  0  0.963729  0  0  0.120444  0  1.026568  0  0  0.124311  0  1.024484  0  0  0.104004  0.117621  0  1.028181  0
H  H11  1  0.01630529  0.55189116  0.71249548  1  0  0.112956  0  0.96365  0  0  0.120449  0  1.026501  0  0  0.124315  0  1.024418  0  0  0.104029  0.117624  0  1.028119  0
H  H12  1  0.92942635  0.16810585  0.51923046  1  0  0.089798  0  0.956938  0  0  0.100568  0  1.017226  0  0  0.103163  0  1.016704  0  0  0.101534  0.098725  0  1.017647  0
H  H13  1  0.57057394  0.66810689  0.51922902  1  0  0.089704  0  0.95701  0  0  0.100514  0  1.017259  0  0  0.103109  0  1.016735  0  0  0.101494  0.098671  0  1.017679  0
H  H14  1  0.07057378  0.83189527  0.48077045  1  0  0.089708  0  0.956961  0  0  0.100513  0  1.017219  0  0  0.103107  0  1.016696  0  0  0.10152  0.098669  0  1.017638  0
H  H15  1  0.42942620  0.33189419  0.48077043  1  0  0.089724  0  0.957012  0  0  0.100542  0  1.01725  0  0  0.103137  0  1.016726  0  0  0.101509  0.098698  0  1.017669  0
H  H16  1  0.60675840  0.04719452  0.46947758  1  0  0.079391  0  0.973827  0  0  0.091663  0  1.034089  0  0  0.093988  0  1.033101  0  0  0.098802  0.089993  0  1.034868  0
H  H17  1  0.89324541  0.54719982  0.46947443  1  0  0.079391  0  0.973903  0  0  0.091672  0  1.034154  0  0  0.093997  0  1.033165  0  0  0.098817  0.090002  0  1.034933  0
H  H18  1  0.39324174  0.95280662  0.53052479  1  0  0.079375  0  0.973833  0  0  0.09165  0  1.03409  0  0  0.093974  0  1.033102  0  0  0.098812  0.089979  0  1.034869  0
H  H19  1  0.10675614  0.45280248  0.53052378  1  0  0.079348  0  0.973787  0  0  0.091631  0  1.034042  0  0  0.093955  0  1.033055  0  0  0.098773  0.08996  0  1.034822  0
C  C20  1  0.11330395  0.10705698  0.18865780  1  0  0.650194  0  3.894112  0  0  0.59914  0  4.184147  0  0  0.634384  0  4.178169  0  0  0.203285  0.575147  0  4.187316  0
C  C21  1  0.38669671  0.60705738  0.18865821  1  0  0.650163  0  3.894111  0  0  0.599109  0  4.184147  0  0  0.634352  0  4.178171  0  0  0.203255  0.575116  0  4.187316  0
C  C22  1  0.88669618  0.89294287  0.81134218  1  0  0.65015  0  3.894172  0  0  0.599084  0  4.18422  0  0  0.634327  0  4.178242  0  0  0.203269  0.575092  0  4.187389  0
C  C23  1  0.61330200  0.39294122  0.81134156  1  0  0.650208  0  3.894226  0  0  0.599171  0  4.184237  0  0  0.634416  0  4.178258  0  0  0.2033  0.575181  0  4.187409  0
C  C24  1  0.96852458  0.07805541  0.26174791  1  0  -0.073929  0  3.720005  0  0  -0.057306  0  3.951577  0  0  -0.063005  0  3.972711  0  0  -0.011714  -0.053607  0  3.93743  0
C  C25  1  0.53147588  0.57805278  0.26174597  1  0  -0.073981  0  3.720062  0  0  -0.057345  0  3.951665  0  0  -0.063044  0  3.972797  0  0  -0.011765  -0.053645  0  3.937517  0
C  C26  1  0.03147130  0.92194320  0.73825259  1  0  -0.073949  0  3.720024  0  0  -0.057296  0  3.951621  0  0  -0.062995  0  3.972752  0  0  -0.011723  -0.053599  0  3.937474  0
C  C27  1  0.46852283  0.42194456  0.73825359  1  0  -0.07394  0  3.719948  0  0  -0.057338  0  3.951541  0  0  -0.063038  0  3.972674  0  0  -0.011743  -0.053649  0  3.937411  0
C  C28  1  0.78800015  0.00543564  0.23371976  1  0  -0.066713  0  3.699186  0  0  -0.052114  0  3.93484  0  0  -0.05686  0  3.955164  0  0  -0.007205  -0.048994  0  3.921221  0
C  C29  1  0.71200069  0.50543509  0.23371690  1  0  -0.066792  0  3.699121  0  0  -0.052255  0  3.934886  0  0  -0.056999  0  3.955214  0  0  -0.007258  -0.04914  0  3.921272  0
C  C30  1  0.21200140  0.99456299  0.76628147  1  0  -0.066696  0  3.699066  0  0  -0.052177  0  3.934844  0  0  -0.056922  0  3.95517  0  0  -0.00723  -0.049055  0  3.921228  0
C  C31  1  0.28799660  0.49456348  0.76628214  1  0  -0.066673  0  3.699096  0  0  -0.05207  0  3.934754  0  0  -0.056815  0  3.955081  0  0  -0.007204  -0.048947  0  3.921139  0
C  C32  1  0.01451658  0.13820779  0.36499395  1  0  -0.068098  0  3.737526  0  0  -0.091238  0  3.985565  0  0  -0.092122  0  4.005904  0  0  -0.081857  -0.090577  0  3.971813  0
C  C33  1  0.48548205  0.63820168  0.36499153  1  0  -0.06808  0  3.737457  0  0  -0.091191  0  3.985521  0  0  -0.092074  0  4.005858  0  0  -0.081866  -0.09053  0  3.97177  0
C  C34  1  0.98548071  0.86179334  0.63500769  1  0  -0.06812  0  3.737489  0  0  -0.091255  0  3.98554  0  0  -0.092138  0  4.005877  0  0  -0.081879  -0.090596  0  3.97179  0
C  C35  1  0.51451950  0.36179565  0.63500730  1  0  -0.068102  0  3.737455  0  0  -0.091219  0  3.98552  0  0  -0.092102  0  4.005857  0  0  -0.08186  -0.090556  0  3.971772  0
C  C36  1  0.65715091  0.00045470  0.30978406  1  0  -0.077475  0  3.712244  0  0  -0.099668  0  3.959111  0  0  -0.101573  0  3.979905  0  0  -0.084846  -0.098292  0  3.945092  0
C  C37  1  0.84285334  0.50045511  0.30978098  1  0  -0.077445  0  3.711974  0  0  -0.099615  0  3.958898  0  0  -0.101519  0  3.979691  0  0  -0.084882  -0.098256  0  3.944862  0
C  C38  1  0.34285065  0.99954519  0.69021810  1  0  -0.077537  0  3.712233  0  0  -0.09971  0  3.959132  0  0  -0.101615  0  3.979926  0  0  -0.084862  -0.098341  0  3.945108  0
C  C39  1  0.15714537  0.49954720  0.69021796  1  0  -0.077574  0  3.712139  0  0  -0.099769  0  3.95904  0  0  -0.101674  0  3.979834  0  0  -0.084936  -0.098398  0  3.945018  0
C  C40  1  0.88779647  0.12489517  0.43969355  1  0  -0.075136  0  3.785865  0  0  -0.089584  0  4.038993  0  0  -0.091733  0  4.06064  0  0  -0.089751  -0.088077  0  4.024227  0
C  C41  1  0.61220335  0.62488859  0.43968999  1  0  -0.075015  0  3.785768  0  0  -0.089476  0  4.038874  0  0  -0.091625  0  4.060522  0  0  -0.089639  -0.087972  0  4.02411  0
C  C42  1  0.11220367  0.87510722  0.56030903  1  0  -0.075046  0  3.785785  0  0  -0.089517  0  4.038912  0  0  -0.091664  0  4.060559  0  0  -0.089732  -0.08801  0  4.024145  0
C  C43  1  0.38780247  0.37510746  0.56030790  1  0  -0.075065  0  3.785795  0  0  -0.089545  0  4.038914  0  0  -0.091694  0  4.060562  0  0  -0.089691  -0.088038  0  4.024145  0
C  C44  1  0.70807162  0.05665864  0.41162518  1  0  -0.055731  0  3.767727  0  0  -0.069194  0  4.017458  0  0  -0.070782  0  4.039154  0  0  -0.085112  -0.068034  0  4.002641  0
C  C45  1  0.79193426  0.55666045  0.41162393  1  0  -0.055744  0  3.767638  0  0  -0.069225  0  4.017393  0  0  -0.070814  0  4.03909  0  0  -0.085152  -0.068066  0  4.002584  0
C  C46  1  0.29192852  0.94334247  0.58837573  1  0  -0.05567  0  3.767616  0  0  -0.069134  0  4.017353  0  0  -0.070722  0  4.039049  0  0  -0.085107  -0.067974  0  4.002538  0
C  C47  1  0.20807155  0.44334190  0.58837646  1  0  -0.055655  0  3.767538  0  0  -0.069129  0  4.017286  0  0  -0.070717  0  4.038983  0  0  -0.085061  -0.067968  0  4.002468  0
C  C48  1  0.71977812  0.92923082  0.12724573  1  0  0.692649  0  3.837832  0  0  0.636194  0  4.130522  0  0  0.673042  0  4.122077  0  0  0.219635  0.610946  0  4.135545  0
C  C49  1  0.78022212  0.42922997  0.12724112  1  0  0.692796  0  3.837639  0  0  0.636288  0  4.130438  0  0  0.673125  0  4.122013  0  0  0.219777  0.611047  0  4.135449  0
C  C50  1  0.28022059  0.07076910  0.87275788  1  0  0.692663  0  3.837796  0  0  0.636194  0  4.130549  0  0  0.673036  0  4.122115  0  0  0.219666  0.610943  0  4.135573  0
C  C51  1  0.21977659  0.57076857  0.87275646  1  0  0.692758  0  3.837756  0  0  0.636283  0  4.130477  0  0  0.673122  0  4.12205  0  0  0.219732  0.611033  0  4.135502  0
O  O52  1  0.20940590  0.24255857  0.21743618  1  0  -0.631701  0  1.956191  0  0  -0.567592  0  2.195556  0  0  -0.598635  0  2.186328  0  0  -0.319599  -0.545752  0  2.201128  0
O  O53  1  0.29059715  0.74255918  0.21743692  1  0  -0.63171  0  1.956224  0  0  -0.567599  0  2.195587  0  0  -0.598639  0  2.186357  0  0  -0.319601  -0.545756  0  2.201154  0
O  O54  1  0.79059281  0.75744251  0.78256327  1  0  -0.631687  0  1.956181  0  0  -0.567577  0  2.195544  0  0  -0.598619  0  2.186315  0  0  -0.319614  -0.545735  0  2.201111  0
O  O55  1  0.70940440  0.25744066  0.78256306  1  0  -0.631722  0  1.956233  0  0  -0.567624  0  2.195594  0  0  -0.598664  0  2.186364  0  0  -0.319612  -0.54578  0  2.201162  0
O  O56  1  0.13884823  0.00246977  0.10184567  1  0  -0.651312  0  2.043548  0  0  -0.583336  0  2.299492  0  0  -0.614398  0  2.288265  0  0  -0.321894  -0.561374  0  2.30637  0
O  O57  1  0.36115067  0.50247146  0.10184564  1  0  -0.651275  0  2.043491  0  0  -0.583293  0  2.299433  0  0  -0.614356  0  2.288206  0  0  -0.321856  -0.56133  0  2.306311  0
O  O58  1  0.86115048  0.99752883  0.89815410  1  0  -0.651263  0  2.043487  0  0  -0.583272  0  2.299421  0  0  -0.614334  0  2.288193  0  0  -0.321852  -0.56131  0  2.3063  0
O  O59  1  0.63884946  0.49752836  0.89815288  1  0  -0.651317  0  2.043647  0  0  -0.583331  0  2.299564  0  0  -0.614395  0  2.288337  0  0  -0.321877  -0.561366  0  2.30644  0
O  O60  1  0.80498064  0.80207251  0.06853296  1  0  -0.663768  0  2.096194  0  0  -0.584319  0  2.363849  0  0  -0.619287  0  2.350723  0  0  -0.316971  -0.559655  0  2.372073  0
O  O61  1  0.69501612  0.30207561  0.06852925  1  0  -0.663759  0  2.09614  0  0  -0.584267  0  2.363801  0  0  -0.619229  0  2.350681  0  0  -0.316967  -0.559607  0  2.372021  0
O  O62  1  0.19501381  0.19792610  0.93146754  1  0  -0.663725  0  2.096206  0  0  -0.58424  0  2.363839  0  0  -0.619205  0  2.350716  0  0  -0.316933  -0.559577  0  2.372062  0
O  O63  1  0.30498259  0.69792292  0.93146760  1  0  -0.663796  0  2.096209  0  0  -0.584321  0  2.363853  0  0  -0.619283  0  2.350732  0  0  -0.316978  -0.559657  0  2.372077  0
O  O64  1  0.56721031  0.98014023  0.09731686  1  0  -0.650381  0  2.060795  0  0  -0.580323  0  2.32544  0  0  -0.612574  0  2.31307  0  0  -0.309619  -0.557434  0  2.333055  0
O  O65  1  0.93279590  0.48014030  0.09731267  1  0  -0.650493  0  2.060792  0  0  -0.580381  0  2.325423  0  0  -0.612625  0  2.313048  0  0  -0.309686  -0.557496  0  2.33304  0
O  O66  1  0.43278982  0.01985971  0.90268749  1  0  -0.6504  0  2.060778  0  0  -0.58035  0  2.325473  0  0  -0.612602  0  2.313108  0  0  -0.309639  -0.55746  0  2.333088  0
O  O67  1  0.06720281  0.51986076  0.90268606  1  0  -0.650504  0  2.060808  0  0  -0.580425  0  2.325433  0  0  -0.612669  0  2.313057  0  0  -0.309691  -0.557537  0  2.333053  0
