# generated using pymatgen
data_ZnH18C27(NO3)2
_symmetry_space_group_name_H-M   'P 1'
_cell_length_a   7.60563375
_cell_length_b   11.54143097
_cell_length_c   13.56378090
_cell_angle_alpha   82.99485833
_cell_angle_beta   83.73382783
_cell_angle_gamma   70.78711232
_symmetry_Int_Tables_number   1
_chemical_formula_structural   ZnH18C27(NO3)2
_chemical_formula_sum   'Zn2 H36 C54 N4 O12'
_cell_volume   1112.89009110
_cell_formula_units_Z   2
loop_
 _symmetry_equiv_pos_site_id
 _symmetry_equiv_pos_as_xyz
  1  'x, y, z'
loop_
 _atom_site_type_symbol
 _atom_site_label
 _atom_site_symmetry_multiplicity
 _atom_site_fract_x
 _atom_site_fract_y
 _atom_site_fract_z
 _atom_site_occupancy
 _atom_site_hle17_bader_spin_density
 _atom_site_hle17_ddec_charge
 _atom_site_hle17_ddec_spin_density
 _atom_site_hle17_ddec_sum_bond_order
 _atom_site_hle17_magmom
 _atom_site_hse06_10hf_bader_spin_density
 _atom_site_hse06_10hf_ddec_charge
 _atom_site_hse06_10hf_ddec_spin_density
 _atom_site_hse06_10hf_ddec_sum_bond_order
 _atom_site_hse06_10hf_magmom
 _atom_site_hse06_bader_spin_density
 _atom_site_hse06_ddec_charge
 _atom_site_hse06_ddec_spin_density
 _atom_site_hse06_ddec_sum_bond_order
 _atom_site_hse06_magmom
 _atom_site_pbe_bader_spin_density
 _atom_site_pbe_cm5_charge
 _atom_site_pbe_ddec_charge
 _atom_site_pbe_ddec_spin_density
 _atom_site_pbe_ddec_sum_bond_order
 _atom_site_pbe_magmom
Zn  Zn0  1  0.30039795  0.11964586  0.01554324  1  0  1.079611  0  1.833062  0  0  0.905691  0  2.282755  0  0  0.950123  0  2.229683  0  0  0.692496  0.874757  0  2.319114  0
Zn  Zn1  1  0.69960022  0.88035463  0.98445521  1  0  1.079598  0  1.833101  0  0  0.905664  0  2.282833  0  0  0.9501  0  2.229759  0  0  0.692475  0.874739  0  2.319168  0
H  H2  1  0.04418142  0.14544094  0.15232339  1  0  0.407984  0  0.907152  0  0  0.376283  0  0.973351  0  0  0.388019  0  0.956397  0  0  0.282225  0.368018  0  0.985249  0
H  H3  1  0.95581852  0.85455863  0.84767652  1  0  0.40799  0  0.90714  0  0  0.376292  0  0.973334  0  0  0.388027  0  0.95638  0  0  0.282225  0.368027  0  0.985232  0
H  H4  1  0.93234471  0.14897230  0.05332213  1  0  0.430246  0  0.87211  0  0  0.399458  0  0.93574  0  0  0.41015  0  0.920246  0  0  0.290236  0.39192  0  0.946651  0
H  H5  1  0.06765743  0.85102542  0.94667784  1  0  0.430236  0  0.872111  0  0  0.399451  0  0.935739  0  0  0.410142  0  0.920244  0  0  0.290226  0.391913  0  0.946648  0
H  H6  1  0.59897088  0.23721497  0.20086259  1  0  0.103978  0  0.955702  0  0  0.112344  0  1.020442  0  0  0.116056  0  1.017906  0  0  0.105632  0.109628  0  1.02234  0
H  H7  1  0.40103170  0.76278459  0.79913717  1  0  0.103962  0  0.955656  0  0  0.112294  0  1.020441  0  0  0.116006  0  1.017904  0  0  0.105607  0.109582  0  1.022341  0
H  H8  1  0.76462113  0.29832595  0.32602329  1  0  0.104874  0  0.96613  0  0  0.110289  0  1.036532  0  0  0.114336  0  1.033058  0  0  0.103779  0.107365  0  1.039085  0
H  H9  1  0.23538411  0.70167084  0.67397732  1  0  0.104916  0  0.966111  0  0  0.11033  0  1.036507  0  0  0.114377  0  1.033035  0  0  0.103805  0.107406  0  1.039064  0
H  H10  1  0.31038546  0.30030760  0.54523518  1  0  0.088734  0  0.991488  0  0  0.095996  0  1.061032  0  0  0.098373  0  1.061083  0  0  0.098697  0.094369  0  1.060913  0
H  H11  1  0.68961713  0.69969196  0.45476457  1  0  0.088709  0  0.991508  0  0  0.095972  0  1.061055  0  0  0.098348  0  1.061106  0  0  0.098688  0.094343  0  1.060938  0
H  H12  1  0.14452184  0.24150304  0.41930754  1  0  0.100748  0  0.948566  0  0  0.108643  0  1.011616  0  0  0.112639  0  1.00863  0  0  0.103294  0.105754  0  1.013852  0
H  H13  1  0.85547942  0.75849929  0.58069200  1  0  0.100733  0  0.948567  0  0  0.10864  0  1.011607  0  0  0.112636  0  1.008619  0  0  0.103282  0.10575  0  1.013842  0
H  H14  1  0.64407766  0.46730502  0.66851351  1  0  0.096152  0  0.963481  0  0  0.104328  0  1.028289  0  0  0.106482  0  1.028735  0  0  0.101944  0.102737  0  1.028127  0
H  H15  1  0.35592360  0.53269455  0.33148706  1  0  0.096151  0  0.963488  0  0  0.104332  0  1.028287  0  0  0.106484  0  1.028737  0  0  0.101967  0.102739  0  1.028125  0
H  H16  1  0.66272111  0.39053094  0.84851949  1  0  0.09141  0  0.958527  0  0  0.102401  0  1.020343  0  0  0.105281  0  1.018983  0  0  0.101297  0.100334  0  1.021351  0
H  H17  1  0.33727705  0.60946956  0.15148265  1  0  0.091407  0  0.958476  0  0  0.102401  0  1.020284  0  0  0.105283  0  1.018919  0  0  0.101296  0.100333  0  1.021292  0
H  H18  1  0.61751174  0.04712975  0.78334667  1  0  0.106507  0  0.975161  0  0  0.113533  0  1.040125  0  0  0.116501  0  1.038977  0  0  0.104451  0.111361  0  1.041004  0
H  H19  1  0.38248333  0.95287167  0.21665408  1  0  0.106493  0  0.975142  0  0  0.113534  0  1.040088  0  0  0.116499  0  1.038945  0  0  0.104449  0.111366  0  1.040952  0
H  H20  1  0.60471571  0.12105955  0.60298685  1  0  0.091659  0  0.949678  0  0  0.103538  0  1.005568  0  0  0.106329  0  1.005096  0  0  0.10147  0.101544  0  1.00596  0
H  H21  1  0.39528378  0.87894094  0.39701446  1  0  0.091652  0  0.949675  0  0  0.103535  0  1.005564  0  0  0.106326  0  1.00509  0  0  0.101462  0.101541  0  1.005957  0
H  H22  1  0.32900554  0.37334312  0.08385145  1  0  0.079683  0  0.937639  0  0  0.089112  0  0.99971  0  0  0.09121  0  0.998216  0  0  0.11683  0.087429  0  1.00097  0
H  H23  1  0.67099087  0.62665553  0.91614656  1  0  0.079618  0  0.937729  0  0  0.089096  0  0.999746  0  0  0.091177  0  0.998274  0  0  0.116844  0.087454  0  1.000966  0
H  H24  1  0.25895300  0.59443171  0.00736637  1  0  0.112935  0  0.986616  0  0  0.119467  0  1.05196  0  0  0.123662  0  1.049454  0  0  0.104153  0.116416  0  1.053932  0
H  H25  1  0.74104650  0.40556602  0.99263376  1  0  0.112936  0  0.986575  0  0  0.119463  0  1.051931  0  0  0.12366  0  1.049424  0  0  0.10414  0.116412  0  1.053902  0
H  H26  1  0.13110650  0.64957389  0.84012092  1  0  0.104952  0  0.960752  0  0  0.118821  0  1.0164  0  0  0.12144  0  1.014685  0  0  0.111669  0.116791  0  1.017843  0
H  H27  1  0.86889034  0.35042937  0.15987954  1  0  0.104998  0  0.960735  0  0  0.118862  0  1.016387  0  0  0.121482  0  1.014672  0  0  0.111693  0.116834  0  1.017824  0
H  H28  1  0.03608405  0.58157352  0.69051123  1  0  0.107023  0  0.970054  0  0  0.113553  0  1.039348  0  0  0.116534  0  1.037703  0  0  0.104519  0.111324  0  1.040693  0
H  H29  1  0.96391676  0.41842697  0.30948853  1  0  0.107045  0  0.970027  0  0  0.113571  0  1.039338  0  0  0.116552  0  1.037694  0  0  0.104527  0.111341  0  1.040683  0
H  H30  1  0.99821072  0.41406422  0.60513793  1  0  0.111743  0  0.941169  0  0  0.121883  0  1.000454  0  0  0.125178  0  0.998551  0  0  0.109355  0.11945  0  1.001993  0
H  H31  1  0.00178788  0.58593811  0.39486325  1  0  0.11172  0  0.941165  0  0  0.121866  0  1.000451  0  0  0.12516  0  0.998548  0  0  0.109335  0.119425  0  1.001999  0
H  H32  1  0.03987409  0.18766299  0.60393246  1  0  0.098763  0  0.933865  0  0  0.112709  0  0.988742  0  0  0.114846  0  0.9879  0  0  0.110413  0.111157  0  0.989384  0
H  H33  1  0.96012894  0.81233841  0.39606486  1  0  0.098812  0  0.933851  0  0  0.112756  0  0.988728  0  0  0.114893  0  0.987886  0  0  0.110435  0.111204  0  0.989371  0
H  H34  1  0.13755731  0.97489537  0.69344117  1  0  0.109824  0  0.943695  0  0  0.122124  0  0.996733  0  0  0.124839  0  0.996867  0  0  0.109556  0.120191  0  0.99676  0
H  H35  1  0.86244439  0.02510604  0.30655623  1  0  0.109878  0  0.943618  0  0  0.122142  0  0.996691  0  0  0.124855  0  0.996826  0  0  0.109573  0.120209  0  0.99672  0
H  H36  1  0.25882675  0.94634164  0.86355390  1  0  0.086909  0  0.963237  0  0  0.089351  0  1.03735  0  0  0.093178  0  1.032178  0  0  0.119866  0.086467  0  1.041219  0
H  H37  1  0.74116965  0.05365978  0.13644529  1  0  0.086923  0  0.963223  0  0  0.089349  0  1.037351  0  0  0.093175  0  1.032173  0  0  0.119866  0.086467  0  1.041215  0
C  C38  1  0.26948309  0.19194256  0.22910580  1  0  0.634208  0  3.911592  0  0  0.58362  0  4.207601  0  0  0.617531  0  4.200043  0  0  0.207003  0.560736  0  4.2118  0
C  C39  1  0.73051640  0.80805793  0.77089478  1  0  0.634186  0  3.911543  0  0  0.583579  0  4.207573  0  0  0.61749  0  4.200014  0  0  0.20699  0.560695  0  4.211773  0
C  C40  1  0.36392147  0.23351298  0.30357953  1  0  -0.049657  0  3.739724  0  0  -0.028275  0  3.971132  0  0  -0.034749  0  3.994593  0  0  -0.013156  -0.024043  0  3.95522  0
C  C41  1  0.63608155  0.76648566  0.69641956  1  0  -0.049662  0  3.73977  0  0  -0.028268  0  3.971161  0  0  -0.03474  0  3.99462  0  0  -0.01316  -0.024036  0  3.95525  0
C  C42  1  0.53755480  0.25137946  0.27670222  1  0  -0.082322  0  3.735111  0  0  -0.104646  0  3.984718  0  0  -0.106342  0  4.005694  0  0  -0.085482  -0.10334  0  3.970423  0
C  C43  1  0.46244999  0.74861825  0.72329760  1  0  -0.082247  0  3.735072  0  0  -0.104544  0  3.984668  0  0  -0.10624  0  4.005643  0  0  -0.085435  -0.103244  0  3.970378  0
C  C44  1  0.62881028  0.28578766  0.34576620  1  0  -0.079298  0  3.72143  0  0  -0.101073  0  3.971237  0  0  -0.101839  0  3.990307  0  0  -0.081428  -0.100441  0  3.958274  0
C  C45  1  0.37119496  0.71420913  0.65423442  1  0  -0.079338  0  3.721482  0  0  -0.101125  0  3.971262  0  0  -0.101896  0  3.99033  0  0  -0.081404  -0.100495  0  3.958302  0
C  C46  1  0.54877893  0.30120571  0.44363235  1  0  -0.030686  0  3.76903  0  0  -0.013338  0  3.999895  0  0  -0.018558  0  4.022659  0  0  -0.016953  -0.009805  0  3.984459  0
C  C47  1  0.45122586  0.69878925  0.55636849  1  0  -0.030678  0  3.76909  0  0  -0.013309  0  3.999887  0  0  -0.018516  0  4.022631  0  0  -0.017016  -0.009772  0  3.984452  0
C  C48  1  0.37427906  0.28483939  0.47015897  1  0  -0.078175  0  3.733694  0  0  -0.099347  0  3.981185  0  0  -0.100255  0  4.001714  0  0  -0.080959  -0.09861  0  3.967149  0
C  C49  1  0.62572573  0.71515833  0.52984084  1  0  -0.07815  0  3.733581  0  0  -0.099345  0  3.981079  0  0  -0.100256  0  4.001605  0  0  -0.080939  -0.098607  0  3.967038  0
C  C50  1  0.28154825  0.25260608  0.40027963  1  0  -0.078366  0  3.736647  0  0  -0.098707  0  3.98219  0  0  -0.10005  0  4.002172  0  0  -0.084223  -0.097671  0  3.968587  0
C  C51  1  0.71845389  0.74739441  0.59972079  1  0  -0.07841  0  3.736626  0  0  -0.09877  0  3.982177  0  0  -0.100114  0  4.002158  0  0  -0.084255  -0.097729  0  3.968569  0
C  C52  1  0.64744887  0.33955195  0.51616013  1  0  0.384928  0  3.721721  0  0  0.3653  0  3.98309  0  0  0.387467  0  3.98459  0  0  0.160473  0.350138  0  3.981962  0
C  C53  1  0.35255503  0.66044485  0.48384278  1  0  0.384917  0  3.721851  0  0  0.36535  0  3.983087  0  0  0.387516  0  3.984584  0  0  0.160516  0.350177  0  3.981972  0
C  C54  1  0.62542903  0.29915706  0.62411030  1  0  -0.035451  0  3.768868  0  0  -0.019435  0  4.004553  0  0  -0.024503  0  4.02749  0  0  -0.018499  -0.01607  0  3.989124  0
C  C55  1  0.37457400  0.70084158  0.37589100  1  0  -0.03538  0  3.768876  0  0  -0.019366  0  4.004516  0  0  -0.024436  0  4.027456  0  0  -0.018479  -0.015993  0  3.989077  0
C  C56  1  0.63825304  0.37542142  0.69427898  1  0  -0.070116  0  3.727085  0  0  -0.091114  0  3.977953  0  0  -0.092135  0  3.998473  0  0  -0.08003  -0.090361  0  3.964119  0
C  C57  1  0.36175395  0.62457722  0.30572281  1  0  -0.070139  0  3.727105  0  0  -0.091144  0  3.977968  0  0  -0.092162  0  3.998488  0  0  -0.080059  -0.090391  0  3.964128  0
C  C58  1  0.64858118  0.33252869  0.79430846  1  0  -0.072679  0  3.74366  0  0  -0.097855  0  3.996234  0  0  -0.098659  0  4.016824  0  0  -0.08482  -0.097213  0  3.98232  0
C  C59  1  0.35142007  0.66747087  0.20569284  1  0  -0.07268  0  3.743576  0  0  -0.097858  0  3.996154  0  0  -0.098661  0  4.016744  0  0  -0.084814  -0.097216  0  3.982239  0
C  C60  1  0.64434973  0.21324454  0.82652896  1  0  -0.05617  0  3.726473  0  0  -0.035902  0  3.965069  0  0  -0.042439  0  3.986735  0  0  -0.013521  -0.031665  0  3.950587  0
C  C61  1  0.35564666  0.78675688  0.17347245  1  0  -0.056159  0  3.726557  0  0  -0.035912  0  3.96516  0  0  -0.042451  0  3.986829  0  0  -0.01356  -0.031676  0  3.950678  0
C  C62  1  0.62383028  0.13878735  0.75731308  1  0  -0.059513  0  3.70776  0  0  -0.084648  0  3.960156  0  0  -0.085173  0  3.980907  0  0  -0.084656  -0.084245  0  3.946269  0
C  C63  1  0.37616745  0.86121131  0.24268706  1  0  -0.05941  0  3.707713  0  0  -0.084544  0  3.960085  0  0  -0.085068  0  3.980834  0  0  -0.084591  -0.084139  0  3.946202  0
C  C64  1  0.61476584  0.18114921  0.65677348  1  0  -0.09235  0  3.739648  0  0  -0.111583  0  3.988457  0  0  -0.113913  0  4.009803  0  0  -0.084607  -0.109957  0  3.974014  0
C  C65  1  0.38523321  0.81884944  0.34322805  1  0  -0.092457  0  3.739668  0  0  -0.111711  0  3.988498  0  0  -0.11404  0  4.009845  0  0  -0.084663  -0.110087  0  3.974053  0
C  C66  1  0.66567326  0.16453135  0.93396365  1  0  0.687482  0  3.844153  0  0  0.627978  0  4.146744  0  0  0.66324  0  4.136235  0  0  0.223176  0.603839  0  4.153404  0
C  C67  1  0.33432447  0.83547007  0.06603621  1  0  0.687491  0  3.844043  0  0  0.628036  0  4.146575  0  0  0.663298  0  4.136064  0  0  0.223243  0.603896  0  4.153236  0
C  C68  1  0.27384572  0.40224901  0.01067749  1  0  0.151124  0  3.695795  0  0  0.118038  0  3.955485  0  0  0.126402  0  3.972289  0  0  0.056242  0.112729  0  3.94393  0
C  C69  1  0.72615113  0.59775149  0.98932030  1  0  0.151131  0  3.695823  0  0  0.118  0  3.955556  0  0  0.126375  0  3.972365  0  0  0.056227  0.112658  0  3.943995  0
C  C70  1  0.23602778  0.52435400  0.96793299  1  0  -0.125116  0  3.722342  0  0  -0.140087  0  3.98051  0  0  -0.147322  0  4.001064  0  0  -0.087315  -0.135344  0  3.966572  0
C  C71  1  0.76397392  0.47564741  0.03206663  1  0  -0.125131  0  3.722282  0  0  -0.140097  0  3.980469  0  0  -0.147331  0  4.00102  0  0  -0.087318  -0.135359  0  3.966544  0
C  C72  1  0.16650911  0.55536033  0.87482115  1  0  -0.034781  0  3.661728  0  0  -0.060733  0  3.907077  0  0  -0.058177  0  3.925551  0  0  -0.06102  -0.062087  0  3.89443  0
C  C73  1  0.83349170  0.44464292  0.12517980  1  0  -0.034843  0  3.66175  0  0  -0.060786  0  3.907123  0  0  -0.058227  0  3.925585  0  0  -0.061052  -0.062147  0  3.894493  0
C  C74  1  0.13806068  0.46428744  0.82367388  1  0  0.025781  0  3.79006  0  0  0.044321  0  4.018554  0  0  0.041256  0  4.043865  0  0  1.8e-05  0.046215  0  4.001448  0
C  C75  1  0.86193572  0.53571398  0.17632753  1  0  0.025844  0  3.7899  0  0  0.044317  0  4.01842  0  0  0.041257  0  4.04373  0  0  -1.3e-05  0.046206  0  4.00132  0
C  C76  1  0.07069297  0.48796482  0.72624275  1  0  -0.090773  0  3.717414  0  0  -0.116266  0  3.972061  0  0  -0.119361  0  3.995272  0  0  -0.082207  -0.114054  0  3.956371  0
C  C77  1  0.92930431  0.51203751  0.27375851  1  0  -0.090815  0  3.717374  0  0  -0.116309  0  3.972074  0  0  -0.119406  0  3.995286  0  0  -0.082213  -0.114093  0  3.956379  0
C  C78  1  0.05223994  0.39522042  0.67878944  1  0  -0.098326  0  3.734402  0  0  -0.118642  0  3.988343  0  0  -0.121926  0  4.010656  0  0  -0.081417  -0.116294  0  3.973226  0
C  C79  1  0.94776175  0.60478099  0.32121017  1  0  -0.098256  0  3.734403  0  0  -0.118569  0  3.988369  0  0  -0.121853  0  4.010682  0  0  -0.081377  -0.116216  0  3.973251  0
C  C80  1  0.10181517  0.27133622  0.72470556  1  0  0.023601  0  3.796453  0  0  0.039184  0  4.028944  0  0  0.036302  0  4.054123  0  0  -0.000996  0.040964  0  4.011955  0
C  C81  1  0.89818212  0.72866611  0.27529349  1  0  0.023591  0  3.796362  0  0  0.039172  0  4.028898  0  0  0.036291  0  4.054075  0  0  -0.000973  0.040953  0  4.011907  0
C  C82  1  0.09182459  0.17093955  0.67794544  1  0  -0.044352  0  3.692809  0  0  -0.069382  0  3.941634  0  0  -0.067327  0  3.961336  0  0  -0.059661  -0.070483  0  3.928137  0
C  C83  1  0.90817535  0.82906278  0.32205271  1  0  -0.044464  0  3.692838  0  0  -0.069481  0  3.941653  0  0  -0.067426  0  3.961354  0  0  -0.05967  -0.070583  0  3.928157  0
C  C84  1  0.14569125  0.05396775  0.72688712  1  0  -0.111934  0  3.709842  0  0  -0.123363  0  3.960953  0  0  -0.130665  0  3.982662  0  0  -0.077974  -0.118646  0  3.94634  0
C  C85  1  0.85430736  0.94603458  0.27311037  1  0  -0.111935  0  3.709835  0  0  -0.123339  0  3.960934  0  0  -0.130638  0  3.982639  0  0  -0.078055  -0.118622  0  3.946324  0
C  C86  1  0.20984251  0.03686476  0.82283251  1  0  0.179893  0  3.64347  0  0  0.143831  0  3.902584  0  0  0.153399  0  3.916437  0  0  0.067168  0.137528  0  3.893302  0
C  C87  1  0.79015389  0.96313665  0.17716595  1  0  0.179898  0  3.643548  0  0  0.143887  0  3.902621  0  0  0.153461  0  3.916472  0  0  0.067247  0.13758  0  3.89334  0
C  C88  1  0.16500519  0.24548585  0.82197330  1  0  0.131099  0  3.75666  0  0  0.124405  0  3.9918  0  0  0.128549  0  4.013668  0  0  0.118808  0.121621  0  3.97707  0
C  C89  1  0.83499166  0.75451741  0.17802568  1  0  0.131245  0  3.756585  0  0  0.124497  0  3.991781  0  0  0.128643  0  4.01365  0  0  0.118824  0.121708  0  3.977051  0
C  C90  1  0.18225467  0.34342859  0.87254791  1  0  0.131052  0  3.766996  0  0  0.124719  0  4.002348  0  0  0.128672  0  4.024685  0  0  0.118691  0.122106  0  3.98729  0
C  C91  1  0.81774350  0.65657191  0.12744980  1  0  0.130929  0  3.767093  0  0  0.124745  0  4.002287  0  0  0.128695  0  4.024628  0  0  0.118731  0.122135  0  3.987224  0
N  N92  1  0.24662146  0.31469380  0.96467157  1  0  -0.365212  0  3.289168  0  0  -0.298926  0  3.557771  0  0  -0.316684  0  3.5748  0  0  -0.316681  -0.286952  0  3.546122  0
N  N93  1  0.75337715  0.68530578  0.03532694  1  0  -0.365176  0  3.289247  0  0  -0.298925  0  3.55783  0  0  -0.316681  0  3.574853  0  0  -0.31672  -0.286955  0  3.546195  0
N  N94  1  0.21701987  0.13012536  0.86900522  1  0  -0.344311  0  3.272068  0  0  -0.273461  0  3.538921  0  0  -0.291548  0  3.554247  0  0  -0.314507  -0.261253  0  3.52847  0
N  N95  1  0.78297654  0.86987606  0.13099397  1  0  -0.344383  0  3.272168  0  0  -0.273585  0  3.539093  0  0  -0.29168  0  3.55443  0  0  -0.314537  -0.26137  0  3.528636  0
O  O96  1  0.37245039  0.15327555  0.15097566  1  0  -0.639791  0  2.082741  0  0  -0.572356  0  2.348915  0  0  -0.59943  0  2.336324  0  0  -0.316156  -0.553372  0  2.356854  0
O  O97  1  0.62754866  0.84672586  0.84902411  1  0  -0.639739  0  2.082732  0  0  -0.572284  0  2.348897  0  0  -0.599357  0  2.336303  0  0  -0.316134  -0.553305  0  2.356844  0
O  O98  1  0.10040752  0.19641637  0.24856384  1  0  -0.626808  0  1.951185  0  0  -0.576084  0  2.173236  0  0  -0.600356  0  2.16306  0  0  -0.321183  -0.559075  0  2.179644  0
O  O99  1  0.89959153  0.80358228  0.75143696  1  0  -0.626818  0  1.951129  0  0  -0.576101  0  2.173204  0  0  -0.600372  0  2.163029  0  0  -0.321181  -0.559092  0  2.179611  0
O  O100  1  0.75248431  0.40142034  0.48741968  1  0  -0.461  0  1.898023  0  0  -0.418746  0  2.104249  0  0  -0.435838  0  2.101767  0  0  -0.259172  -0.406922  0  2.105753  0
O  O101  1  0.24751827  0.59857646  0.51258257  1  0  -0.461011  0  1.898079  0  0  -0.418796  0  2.104272  0  0  -0.435893  0  2.1018  0  0  -0.259212  -0.406967  0  2.105781  0
O  O102  1  0.74673145  0.21164998  0.98585608  1  0  -0.607999  0  1.953773  0  0  -0.553837  0  2.18001  0  0  -0.577381  0  2.169417  0  0  -0.30515  -0.537398  0  2.186937  0
O  O103  1  0.25326981  0.78834959  0.01414375  1  0  -0.607976  0  1.95377  0  0  -0.553831  0  2.179984  0  0  -0.577374  0  2.169392  0  0  -0.305158  -0.537394  0  2.186914  0
O  O104  1  0.59561182  0.07776951  0.96662419  1  0  -0.687476  0  2.159362  0  0  -0.606293  0  2.451069  0  0  -0.633595  0  2.432029  0  0  -0.328813  -0.587122  0  2.463665  0
O  O105  1  0.40438723  0.92223190  0.03337632  1  0  -0.687527  0  2.1593  0  0  -0.606397  0  2.45103  0  0  -0.633697  0  2.431988  0  0  -0.328858  -0.587222  0  2.463623  0
O  O106  1  0.04963951  0.10920186  0.08763060  1  0  -0.840243  0  1.9364  0  0  -0.776789  0  2.143611  0  0  -0.799742  0  2.109852  0  0  -0.58286  -0.760433  0  2.166873  0
O  O107  1  0.95036131  0.89079587  0.91236945  1  0  -0.840222  0  1.936378  0  0  -0.776769  0  2.143589  0  0  -0.799719  0  2.109828  0  0  -0.582842  -0.760414  0  2.166852  0
