# generated using pymatgen
data_GdH12C14NO8
_symmetry_space_group_name_H-M   'P 1'
_cell_length_a   6.02850906
_cell_length_b   14.49585953
_cell_length_c   17.72120000
_cell_angle_alpha   92.30537656
_cell_angle_beta   90.00000000
_cell_angle_gamma   90.00000000
_symmetry_Int_Tables_number   1
_chemical_formula_structural   GdH12C14NO8
_chemical_formula_sum   'Gd4 H48 C56 N4 O32'
_cell_volume   1547.37425780
_cell_formula_units_Z   4
loop_
 _symmetry_equiv_pos_site_id
 _symmetry_equiv_pos_as_xyz
  1  'x, y, z'
loop_
 _atom_site_type_symbol
 _atom_site_label
 _atom_site_symmetry_multiplicity
 _atom_site_fract_x
 _atom_site_fract_y
 _atom_site_fract_z
 _atom_site_occupancy
 _atom_site_hle17_bader_spin_density
 _atom_site_hle17_ddec_charge
 _atom_site_hle17_ddec_spin_density
 _atom_site_hle17_ddec_sum_bond_order
 _atom_site_hle17_magmom
 _atom_site_hse06_10hf_bader_spin_density
 _atom_site_hse06_10hf_ddec_charge
 _atom_site_hse06_10hf_ddec_spin_density
 _atom_site_hse06_10hf_ddec_sum_bond_order
 _atom_site_hse06_10hf_magmom
 _atom_site_hse06_bader_spin_density
 _atom_site_hse06_ddec_charge
 _atom_site_hse06_ddec_spin_density
 _atom_site_hse06_ddec_sum_bond_order
 _atom_site_hse06_magmom
 _atom_site_pbe_bader_charge
 _atom_site_pbe_bader_spin_density
 _atom_site_pbe_cm5_charge
 _atom_site_pbe_ddec_charge
 _atom_site_pbe_ddec_spin_density
 _atom_site_pbe_ddec_sum_bond_order
 _atom_site_pbe_magmom
Gd  Gd0  1  0.09138744  0.48434745  0.38379483  1  0  2.132905  0  1.81275  0  0  2.026575  0  2.184019  0  0  2.083502  0  2.126081  0  2.15961  0  1.467799  1.983014  0  2.229816  0
Gd  Gd1  1  0.59138503  0.01565300  0.11620643  1  0  2.13296  0  1.812721  0  0  2.026573  0  2.184064  0  0  2.083501  0  2.126127  0  2.159543  0  1.467795  1.983  0  2.229885  0
Gd  Gd2  1  0.90860442  0.51565000  0.61620644  1  0  2.132918  0  1.812588  0  0  2.026575  0  2.183951  0  0  2.083527  0  2.125976  0  2.159502  0  1.46776  1.98294  0  2.229866  0
Gd  Gd3  1  0.40860020  0.98434998  0.88379220  1  0  2.132885  0  1.812642  0  0  2.026535  0  2.184  0  0  2.083468  0  2.126049  0  2.159528  0  1.467771  1.982946  0  2.229849  0
H  H4  1  0.00258439  0.20164350  0.51505819  1  0  0.091195  0  0.953863  0  0  0.104907  0  1.011469  0  0  0.107243  0  1.011251  0  0.058475  0  0.104056  0.103114  0  1.011953  0
H  H5  1  0.50260188  0.29835074  0.98494287  1  0  0.091326  0  0.953732  0  0  0.104936  0  1.011438  0  0  0.107271  0  1.011222  0  0.05884  0  0.104048  0.103144  0  1.011922  0
H  H6  1  0.99740913  0.79836293  0.48494564  1  0  0.091218  0  0.953841  0  0  0.104962  0  1.011398  0  0  0.107299  0  1.011177  0  0.05848  0  0.104052  0.10317  0  1.011881  0
H  H7  1  0.49741154  0.70163842  0.01505983  1  0  0.091282  0  0.953799  0  0  0.104983  0  1.011396  0  0  0.10732  0  1.011176  0  0.05841  0  0.10408  0.103191  0  1.01188  0
H  H8  1  0.79542553  0.65468634  0.28628367  1  0  0.077596  0  0.961564  0  0  0.085058  0  1.027023  0  0  0.087433  0  1.02566  0  0.114112  0  0.115975  0.083227  0  1.028191  0
H  H9  1  0.29542130  0.84531364  0.21372118  1  0  0.077611  0  0.961599  0  0  0.085081  0  1.027038  0  0  0.087403  0  1.025743  0  0.114171  0  0.115982  0.08325  0  1.028205  0
H  H10  1  0.20457629  0.34530697  0.71371859  1  0  0.077597  0  0.961513  0  0  0.085097  0  1.026933  0  0  0.087392  0  1.025664  0  0.114071  0  0.11599  0.083267  0  1.028103  0
H  H11  1  0.70457056  0.15469072  0.78628201  1  0  0.077602  0  0.961552  0  0  0.08511  0  1.026955  0  0  0.087402  0  1.025691  0  0.114135  0  0.115983  0.083276  0  1.02813  0
H  H12  1  0.81746580  0.74956192  0.16989552  1  0  0.119179  0  0.962109  0  0  0.126024  0  1.023999  0  0  0.129581  0  1.023184  0  0.129405  0  0.108823  0.123503  0  1.024651  0
H  H13  1  0.31748314  0.75043667  0.33010815  1  0  0.119149  0  0.962116  0  0  0.126018  0  1.023974  0  0  0.129578  0  1.023157  0  0.129344  0  0.108834  0.123497  0  1.024626  0
H  H14  1  0.18252606  0.25042793  0.83010493  1  0  0.119157  0  0.962021  0  0  0.125967  0  1.023943  0  0  0.129522  0  1.02314  0  0.129211  0  0.108797  0.123446  0  1.024596  0
H  H15  1  0.68253194  0.24956837  0.66989393  1  0  0.119184  0  0.96202  0  0  0.126001  0  1.023939  0  0  0.129555  0  1.023138  0  0.129253  0  0.108823  0.123479  0  1.024591  0
H  H16  1  0.13930642  0.72744944  0.08388589  1  0  0.095513  0  0.952384  0  0  0.103998  0  1.015355  0  0  0.106409  0  1.014312  0  0.1353  0  0.107044  0.102151  0  1.016287  0
H  H17  1  0.63933387  0.77254777  0.41611210  1  0  0.095544  0  0.952272  0  0  0.104078  0  1.015196  0  0  0.106492  0  1.01415  0  0.135356  0  0.10706  0.102227  0  1.016142  0
H  H18  1  0.86068876  0.27254180  0.91611517  1  0  0.095551  0  0.95221  0  0  0.104006  0  1.015207  0  0  0.106467  0  1.014105  0  0.135366  0  0.107063  0.102158  0  1.016144  0
H  H19  1  0.36069615  0.22745382  0.58388197  1  0  0.095551  0  0.952244  0  0  0.103997  0  1.015246  0  0  0.106443  0  1.014162  0  0.135282  0  0.107042  0.102148  0  1.016185  0
H  H20  1  0.43546920  0.61013205  0.11718961  1  0  0.107384  0  0.959962  0  0  0.114584  0  1.026005  0  0  0.117952  0  1.024704  0  0.087475  0  0.108656  0.112217  0  1.026949  0
H  H21  1  0.93548669  0.88986862  0.38280680  1  0  0.107428  0  0.959896  0  0  0.11459  0  1.025972  0  0  0.117956  0  1.024676  0  0.087573  0  0.108653  0.112226  0  1.026916  0
H  H22  1  0.56453262  0.38986402  0.88281218  1  0  0.107332  0  0.959986  0  0  0.114567  0  1.025982  0  0  0.117933  0  1.024682  0  0.087496  0  0.108671  0.112202  0  1.026927  0
H  H23  1  0.06453669  0.11013436  0.61718449  1  0  0.107336  0  0.959926  0  0  0.114597  0  1.025904  0  0  0.117962  0  1.024608  0  0.087445  0  0.10868  0.112234  0  1.026849  0
H  H24  1  0.28561291  0.15924260  0.38058399  1  0  0.109249  0  0.95084  0  0  0.117856  0  1.013022  0  0  0.122017  0  1.0098  0  0.116474  0  0.106488  0.114772  0  1.015575  0
H  H25  1  0.78562045  0.34075785  0.11941050  1  0  0.109269  0  0.950931  0  0  0.117864  0  1.013134  0  0  0.122026  0  1.00991  0  0.116447  0  0.106496  0.11478  0  1.015687  0
H  H26  1  0.71439720  0.84075416  0.61941331  1  0  0.109231  0  0.950696  0  0  0.117813  0  1.01293  0  0  0.121961  0  1.009723  0  0.11636  0  0.106504  0.114729  0  1.015483  0
H  H27  1  0.21439463  0.65925133  0.88058890  1  0  0.109269  0  0.950705  0  0  0.117834  0  1.01295  0  0  0.122007  0  1.009715  0  0.116557  0  0.106492  0.114751  0  1.015504  0
H  H28  1  0.52741233  0.02332830  0.40014913  1  0  0.094767  0  0.959943  0  0  0.105326  0  1.018737  0  0  0.107883  0  1.019034  0  0.070865  0  0.100602  0.103507  0  1.018661  0
H  H29  1  0.02742801  0.47667008  0.09984923  1  0  0.094714  0  0.960005  0  0  0.105249  0  1.018824  0  0  0.107813  0  1.019102  0  0.07092  0  0.100559  0.10343  0  1.018746  0
H  H30  1  0.47260276  0.97667122  0.59984938  1  0  0.09469  0  0.960022  0  0  0.105286  0  1.018787  0  0  0.107848  0  1.019069  0  0.070857  0  0.100603  0.103469  0  1.018708  0
H  H31  1  0.97260864  0.52333220  0.90015332  1  0  0.094685  0  0.95995  0  0  0.105271  0  1.018739  0  0  0.107829  0  1.019032  0  0.070933  0  0.100618  0.103454  0  1.018659  0
H  H32  1  0.89440025  0.04604972  0.46432870  1  0  0.083533  0  0.958561  0  0  0.094737  0  1.019972  0  0  0.09762  0  1.01784  0  0.076067  0  0.100649  0.092705  0  1.021458  0
H  H33  1  0.39441759  0.45394797  0.03566964  1  0  0.083549  0  0.958579  0  0  0.094765  0  1.019981  0  0  0.097646  0  1.017853  0  0.075995  0  0.100661  0.092735  0  1.021461  0
H  H34  1  0.10561152  0.95395394  0.53567390  1  0  0.083571  0  0.95872  0  0  0.094796  0  1.020075  0  0  0.097678  0  1.017949  0  0.076265  0  0.100695  0.092765  0  1.021561  0
H  H35  1  0.60562072  0.54604603  0.96433377  1  0  0.083569  0  0.958497  0  0  0.094772  0  1.019923  0  0  0.097655  0  1.01779  0  0.075868  0  0.1007  0.092741  0  1.021405  0
H  H36  1  0.68677180  0.57376534  0.44546729  1  0  0.446761  0  0.849488  0  0  0.415336  0  0.914276  0  0  0.425984  0  0.898931  0  0.67298  0  0.307711  0.407828  0  0.925075  0
H  H37  1  0.18677421  0.92623532  0.05453195  1  0  0.446755  0  0.849497  0  0  0.415336  0  0.914274  0  0  0.425981  0  0.898934  0  0.672897  0  0.307711  0.407833  0  0.925067  0
H  H38  1  0.31321841  0.42623280  0.55453231  1  0  0.446827  0  0.849405  0  0  0.41536  0  0.914252  0  0  0.426008  0  0.898908  0  0.673035  0  0.307715  0.407855  0  0.925049  0
H  H39  1  0.81321765  0.07376489  0.94546603  1  0  0.446783  0  0.849467  0  0  0.415337  0  0.914263  0  0  0.425985  0  0.89892  0  0.673076  0  0.307729  0.407836  0  0.925051  0
H  H40  1  0.77724359  0.43033798  0.24955769  1  0  0.44356  0  0.855611  0  0  0.410311  0  0.921858  0  0  0.422881  0  0.90371  0  0.658514  0  0.296148  0.401433  0  0.934638  0
H  H41  1  0.27724434  0.06966799  0.25044262  1  0  0.44353  0  0.855656  0  0  0.410365  0  0.921785  0  0  0.422935  0  0.903637  0  0.658653  0  0.296125  0.401488  0  0.934562  0
H  H42  1  0.22275657  0.56966085  0.75044137  1  0  0.443569  0  0.855575  0  0  0.41032  0  0.921819  0  0  0.42289  0  0.903673  0  0.65852  0  0.296151  0.401443  0  0.934598  0
H  H43  1  0.72274752  0.93034120  0.74955735  1  0  0.44355  0  0.855593  0  0  0.410275  0  0.921884  0  0  0.422845  0  0.903736  0  0.658476  0  0.296117  0.401398  0  0.934662  0
H  H44  1  0.62122159  0.52953209  0.36563338  1  0  0.436596  0  0.864011  0  0  0.407096  0  0.926529  0  0  0.417486  0  0.911448  0  0.648789  0  0.307077  0.39976  0  0.937159  0
H  H45  1  0.12122069  0.97046374  0.13436569  1  0  0.436639  0  0.86396  0  0  0.407137  0  0.926478  0  0  0.417527  0  0.911396  0  0.648813  0  0.307113  0.399801  0  0.93711  0
H  H46  1  0.37877027  0.47046260  0.63436667  1  0  0.436545  0  0.864084  0  0  0.407022  0  0.926644  0  0  0.417415  0  0.911555  0  0.648847  0  0.30706  0.399685  0  0.937276  0
H  H47  1  0.87876620  0.02953509  0.86563111  1  0  0.436544  0  0.8641  0  0  0.407038  0  0.926618  0  0  0.417432  0  0.911528  0  0.648691  0  0.307056  0.399701  0  0.937249  0
H  H48  1  0.89562775  0.33894898  0.28164868  1  0  0.456507  0  0.789539  0  0  0.442812  0  0.831095  0  0  0.451183  0  0.819155  0  0.603733  0  0.34074  0.436785  0  0.839751  0
H  H49  1  0.39562684  0.16105769  0.21834996  1  0  0.456606  0  0.789379  0  0  0.442913  0  0.830954  0  0  0.451284  0  0.819011  0  0.603633  0  0.340762  0.436887  0  0.83961  0
H  H50  1  0.10436909  0.66105123  0.71835156  1  0  0.456577  0  0.789482  0  0  0.44287  0  0.83102  0  0  0.451245  0  0.819074  0  0.603731  0  0.340761  0.436842  0  0.839678  0
H  H51  1  0.60437000  0.83894943  0.78164655  1  0  0.456511  0  0.789533  0  0  0.442817  0  0.831086  0  0  0.451188  0  0.819145  0  0.603874  0  0.340763  0.43679  0  0.839741  0
C  C52  1  0.84422532  0.19168363  0.48621208  1  0  -0.090055  0  3.734006  0  0  -0.11218  0  3.982846  0  0  -0.115286  0  4.003951  0  0.025604  0  -0.085038  -0.110164  0  3.968752  0
C  C53  1  0.34424432  0.30831337  0.01379019  1  0  -0.09004  0  3.734113  0  0  -0.112092  0  3.982912  0  0  -0.115194  0  4.004015  0  0.024968  0  -0.084985  -0.11008  0  3.96882  0
C  C54  1  0.15577152  0.80832004  0.51378996  1  0  -0.090063  0  3.733959  0  0  -0.112207  0  3.982818  0  0  -0.115312  0  4.003922  0  0.025629  0  -0.085027  -0.110191  0  3.968722  0
C  C55  1  0.65577242  0.69168132  0.98621437  1  0  -0.090143  0  3.734082  0  0  -0.112251  0  3.982891  0  0  -0.115356  0  4.003997  0  0.025699  0  -0.085037  -0.110237  0  3.968797  0
C  C56  1  0.70434165  0.26776001  0.47809584  1  0  -0.035997  0  3.683043  0  0  -0.022623  0  3.916372  0  0  -0.024545  0  3.934697  0  -0.026408  0  0.004529  -0.021286  0  3.904076  0
C  C57  1  0.20435899  0.23223837  0.02190817  1  0  -0.036119  0  3.683203  0  0  -0.022642  0  3.916509  0  0  -0.024569  0  3.934842  0  -0.026127  0  0.004553  -0.021304  0  3.904206  0
C  C58  1  0.29564690  0.73224020  0.52190665  1  0  -0.036104  0  3.682973  0  0  -0.022745  0  3.916265  0  0  -0.024664  0  3.934594  0  -0.025964  0  0.004514  -0.021407  0  3.903968  0
C  C59  1  0.79564449  0.76776115  0.97809655  1  0  -0.035933  0  3.682984  0  0  -0.022519  0  3.916318  0  0  -0.024441  0  3.93465  0  -0.026206  0  0.004582  -0.021182  0  3.904018  0
C  C60  1  0.77413668  0.35701910  0.51717656  1  0  0.715711  0  3.855046  0  0  0.663823  0  4.159742  0  0  0.699783  0  4.147198  0  1.612403  0  0.225952  0.639231  0  4.167441  0
C  C61  1  0.27414904  0.14297721  0.98282738  1  0  0.715816  0  3.854842  0  0  0.663858  0  4.159646  0  0  0.699832  0  4.147079  0  1.61242  0  0.225951  0.639266  0  4.167348  0
C  C62  1  0.22584854  0.64297973  0.48282645  1  0  0.715743  0  3.854775  0  0  0.663907  0  4.159384  0  0  0.699855  0  4.146862  0  1.612281  0  0.225944  0.639313  0  4.167093  0
C  C63  1  0.72584613  0.85702093  0.01717617  1  0  0.715777  0  3.854836  0  0  0.663922  0  4.159447  0  0  0.699882  0  4.146902  0  1.612423  0  0.225958  0.639328  0  4.167152  0
C  C64  1  0.26406363  0.57367628  0.21750519  1  0  0.094997  0  3.759824  0  0  0.100702  0  4.003803  0  0  0.101117  0  4.023586  0  0.487823  0  0.116395  0.10034  0  3.990434  0
C  C65  1  0.76406786  0.92632577  0.28249409  1  0  0.094997  0  3.760154  0  0  0.100715  0  4.004129  0  0  0.101131  0  4.023909  0  0.487838  0  0.116424  0.100354  0  3.990761  0
C  C66  1  0.73593652  0.42631841  0.78249656  1  0  0.095166  0  3.759962  0  0  0.100672  0  4.004262  0  0  0.101084  0  4.02405  0  0.48836  0  0.116472  0.100313  0  3.990887  0
C  C67  1  0.23593396  0.07368273  0.71750077  1  0  0.095135  0  3.760096  0  0  0.100707  0  4.004255  0  0  0.101122  0  4.024043  0  0.488198  0  0.11649  0.100346  0  3.990882  0
C  C68  1  0.93285918  0.64697859  0.24659875  1  0  0.143712  0  3.703221  0  0  0.115142  0  3.961895  0  0  0.121049  0  3.979497  0  0.501111  0  0.05434  0.111334  0  3.949769  0
C  C69  1  0.43285827  0.85302138  0.25340441  1  0  0.143698  0  3.703252  0  0  0.115123  0  3.961924  0  0  0.121064  0  3.979532  0  0.501175  0  0.054395  0.111315  0  3.949797  0
C  C70  1  0.06713932  0.35301403  0.75340292  1  0  0.143777  0  3.703293  0  0  0.115157  0  3.961955  0  0  0.121122  0  3.979573  0  0.501378  0  0.05434  0.111348  0  3.949823  0
C  C71  1  0.56713525  0.14698366  0.74659598  1  0  0.143693  0  3.703284  0  0  0.115075  0  3.96195  0  0  0.121042  0  3.979566  0  0.501313  0  0.054327  0.111267  0  3.949819  0
C  C72  1  0.94498324  0.69918401  0.18228771  1  0  -0.105494  0  3.68298  0  0  -0.119816  0  3.934108  0  0  -0.125385  0  3.953794  0  -0.058093  0  -0.076138  -0.116229  0  3.920893  0
C  C73  1  0.44499394  0.80081458  0.31771540  1  0  -0.105477  0  3.682993  0  0  -0.119801  0  3.934147  0  0  -0.125371  0  3.953825  0  -0.058001  0  -0.076192  -0.116212  0  3.920928  0
C  C74  1  0.05501360  0.30080653  0.81771277  1  0  -0.105606  0  3.682976  0  0  -0.11985  0  3.934046  0  0  -0.125422  0  3.953723  0  -0.057712  0  -0.076191  -0.116261  0  3.920828  0
C  C75  1  0.55501451  0.19918978  0.68228497  1  0  -0.105575  0  3.682903  0  0  -0.119863  0  3.934026  0  0  -0.125426  0  3.95368  0  -0.057653  0  -0.076186  -0.116279  0  3.920822  0
C  C76  1  0.12627500  0.68677526  0.13408129  1  0  -0.003832  0  3.712246  0  0  -0.020114  0  3.961875  0  0  -0.018068  0  3.980814  0  -0.064519  0  -0.063149  -0.02121  0  3.949029  0
C  C77  1  0.62629250  0.81322333  0.36591844  1  0  -0.003807  0  3.712092  0  0  -0.020161  0  3.961732  0  0  -0.018119  0  3.980676  0  -0.064293  0  -0.063153  -0.021256  0  3.948885  0
C  C78  1  0.87372349  0.31321598  0.86591921  1  0  -0.003668  0  3.712008  0  0  -0.019933  0  3.961581  0  0  -0.01792  0  3.980504  0  -0.064433  0  -0.063014  -0.021028  0  3.948735  0
C  C79  1  0.37372590  0.18678102  0.63407798  1  0  -0.003674  0  3.712021  0  0  -0.019921  0  3.96162  0  0  -0.017897  0  3.98055  0  -0.064472  0  -0.063032  -0.021019  0  3.948773  0
C  C80  1  0.28874303  0.62274447  0.15191888  1  0  -0.124599  0  3.72092  0  0  -0.145636  0  3.967559  0  0  -0.150893  0  3.988897  0  -0.039724  0  -0.075602  -0.142157  0  3.953123  0
C  C81  1  0.78875389  0.87725688  0.34807981  1  0  -0.124697  0  3.721023  0  0  -0.14568  0  3.967691  0  0  -0.150936  0  3.98903  0  -0.040264  0  -0.075583  -0.142204  0  3.953254  0
C  C82  1  0.71125712  0.37724883  0.84808282  1  0  -0.124669  0  3.720966  0  0  -0.145664  0  3.967662  0  0  -0.150921  0  3.989021  0  -0.040389  0  -0.075676  -0.142188  0  3.953226  0
C  C83  1  0.21125787  0.12275024  0.65191331  1  0  -0.124717  0  3.720976  0  0  -0.145776  0  3.967672  0  0  -0.151036  0  3.989029  0  -0.040151  0  -0.075739  -0.142298  0  3.953231  0
C  C84  1  0.43890952  0.50714275  0.24231186  1  0  0.639787  0  3.887814  0  0  0.589775  0  4.184589  0  0  0.623151  0  4.176016  0  1.593925  0  0.226113  0.567221  0  4.189592  0
C  C85  1  0.93891042  0.99285998  0.25768800  1  0  0.63984  0  3.887863  0  0  0.589808  0  4.184679  0  0  0.623186  0  4.176103  0  1.593869  0  0.226156  0.567254  0  4.189682  0
C  C86  1  0.56108566  0.49285263  0.75769329  1  0  0.639942  0  3.887395  0  0  0.589908  0  4.184273  0  0  0.623286  0  4.175698  0  1.594328  0  0.226192  0.567353  0  4.189276  0
C  C87  1  0.06107314  0.00714852  0.74230460  1  0  0.639926  0  3.887857  0  0  0.589936  0  4.184606  0  0  0.623314  0  4.176029  0  1.593784  0  0.226247  0.567381  0  4.18961  0
C  C88  1  0.35224796  0.33397249  0.42379245  1  0  0.65048  0  3.901138  0  0  0.599489  0  4.201952  0  0  0.633651  0  4.194206  0  1.554457  0  0.198113  0.576459  0  4.206211  0
C  C89  1  0.85225052  0.16602727  0.07620484  1  0  0.650394  0  3.901146  0  0  0.599433  0  4.20198  0  0  0.633603  0  4.194228  0  1.554471  0  0.198107  0.576402  0  4.20624  0
C  C90  1  0.64773893  0.66602496  0.57620713  1  0  0.650335  0  3.901179  0  0  0.59938  0  4.201957  0  0  0.633549  0  4.194207  0  1.554447  0  0.198061  0.576345  0  4.206213  0
C  C91  1  0.14773470  0.83397847  0.92379388  1  0  0.650326  0  3.901402  0  0  0.59945  0  4.202135  0  0  0.633615  0  4.194386  0  1.555014  0  0.198012  0.576419  0  4.206392  0
C  C92  1  0.50379455  0.25566056  0.43827995  1  0  -0.091026  0  3.746488  0  0  -0.076405  0  3.980874  0  0  -0.08369  0  4.001894  0  -0.056263  0  -0.01571  -0.071802  0  3.966959  0
C  C93  1  0.00380691  0.24433851  0.06172013  1  0  -0.090989  0  3.746539  0  0  -0.07652  0  3.981074  0  0  -0.083815  0  4.002113  0  -0.0564  0  -0.015675  -0.071913  0  3.96715  0
C  C94  1  0.49619897  0.74433965  0.56171859  1  0  -0.091059  0  3.74645  0  0  -0.076368  0  3.980745  0  0  -0.083647  0  4.001752  0  -0.056428  0  -0.015662  -0.071769  0  3.966839  0
C  C95  1  0.99619822  0.75566446  0.93828302  1  0  -0.09121  0  3.746523  0  0  -0.076701  0  3.981004  0  0  -0.083998  0  4.002041  0  -0.056411  0  -0.015716  -0.072095  0  3.967086  0
C  C96  1  0.44300008  0.16727208  0.41036087  1  0  -0.062721  0  3.725677  0  0  -0.08762  0  3.974764  0  0  -0.086613  0  3.99299  0  -0.070991  0  -0.080093  -0.088166  0  3.962688  0
C  C97  1  0.94300928  0.33272768  0.08963472  1  0  -0.0627  0  3.725789  0  0  -0.087559  0  3.974902  0  0  -0.086549  0  3.993132  0  -0.070776  0  -0.080147  -0.088107  0  3.962825  0
C  C98  1  0.55700339  0.83272744  0.58963596  1  0  -0.06245  0  3.725351  0  0  -0.087352  0  3.974455  0  0  -0.086334  0  3.992686  0  -0.071041  0  -0.080036  -0.087899  0  3.96238  0
C  C99  1  0.05700414  0.66727598  0.91036619  1  0  -0.06254  0  3.725487  0  0  -0.087373  0  3.974616  0  0  -0.086369  0  3.992839  0  -0.071217  0  -0.0801  -0.087924  0  3.962543  0
C  C100  1  0.57927756  0.09156161  0.42109620  1  0  -0.070643  0  3.762833  0  0  -0.085  0  4.014251  0  0  -0.08804  0  4.035367  0  -0.069215  0  -0.089843  -0.083105  0  3.999945  0
C  C101  1  0.07929158  0.40843608  0.07890045  1  0  -0.070602  0  3.762606  0  0  -0.084929  0  4.014024  0  0  -0.087967  0  4.035144  0  -0.069326  0  -0.089761  -0.083034  0  3.99972  0
C  C102  1  0.42073255  0.90843860  0.57890234  1  0  -0.070721  0  3.762862  0  0  -0.085117  0  4.014315  0  0  -0.088154  0  4.035427  0  -0.06926  0  -0.089894  -0.083222  0  4.000013  0
C  C103  1  0.92073678  0.59156413  0.92110204  1  0  -0.070619  0  3.762782  0  0  -0.084999  0  4.01422  0  0  -0.088039  0  4.035339  0  -0.06922  0  -0.089859  -0.083104  0  3.999918  0
C  C104  1  0.78266449  0.10428381  0.45789948  1  0  -0.043696  0  3.758541  0  0  -0.059971  0  4.011623  0  0  -0.059355  0  4.031134  0  -0.021787  0  -0.081358  -0.060144  0  3.998211  0
C  C105  1  0.28268018  0.39571318  0.04209940  1  0  -0.043802  0  3.758529  0  0  -0.060084  0  4.011594  0  0  -0.059469  0  4.031105  0  -0.021679  0  -0.081444  -0.060257  0  3.998185  0
C  C106  1  0.21734561  0.89571916  0.54210197  1  0  -0.043714  0  3.758673  0  0  -0.060004  0  4.011775  0  0  -0.059387  0  4.031287  0  -0.021939  0  -0.081422  -0.060178  0  3.998366  0
C  C107  1  0.71734984  0.60428288  0.95790351  1  0  -0.043752  0  3.758547  0  0  -0.060039  0  4.011649  0  0  -0.059423  0  4.031161  0  -0.021463  0  -0.081445  -0.060211  0  3.998239  0
N  N108  1  0.08904026  0.58561348  0.26436097  1  0  -0.385681  0  3.22864  0  0  -0.340674  0  3.484913  0  0  -0.354451  0  3.503794  0  -1.230789  0  -0.359701  -0.330871  0  3.47195  0
N  N109  1  0.58903785  0.91438856  0.23564113  1  0  -0.385696  0  3.228783  0  0  -0.340696  0  3.485077  0  0  -0.354467  0  3.503936  0  -1.230709  0  -0.359755  -0.330892  0  3.472114  0
N  N110  1  0.91095824  0.41438052  0.73564188  1  0  -0.385821  0  3.228926  0  0  -0.340756  0  3.485279  0  0  -0.354527  0  3.504127  0  -1.231266  0  -0.359747  -0.330947  0  3.472315  0
N  N111  1  0.41095236  0.08561855  0.76435763  1  0  -0.385719  0  3.228894  0  0  -0.340671  0  3.485221  0  0  -0.354441  0  3.504066  0  -1.231264  0  -0.359709  -0.330865  0  3.472256  0
O  O112  1  0.89426257  0.41564673  0.48419945  1  0  -0.778129  0  2.135706  0  0  -0.73179  0  2.394942  0  0  -0.760017  0  2.384586  0  -1.21922  0  -0.401735  -0.711282  0  2.401502  0
O  O113  1  0.39427161  0.08434751  0.01580499  1  0  -0.778209  0  2.135701  0  0  -0.731848  0  2.394985  0  0  -0.760084  0  2.384634  0  -1.219647  0  -0.401764  -0.711333  0  2.401528  0
O  O114  1  0.10572100  0.58435279  0.51580415  1  0  -0.77812  0  2.135678  0  0  -0.731818  0  2.39493  0  0  -0.760041  0  2.384578  0  -1.219422  0  -0.401679  -0.711306  0  2.4015  0
O  O115  1  0.60571527  0.91564787  0.98419678  1  0  -0.778145  0  2.135605  0  0  -0.731829  0  2.394843  0  0  -0.760055  0  2.384488  0  -1.219393  0  -0.40172  -0.711324  0  2.401417  0
O  O116  1  0.72533357  0.36877749  0.58657233  1  0  -0.673892  0  1.991893  0  0  -0.631809  0  2.234161  0  0  -0.657522  0  2.225808  0  -1.179841  0  -0.361975  -0.613493  0  2.239491  0
O  O117  1  0.22534427  0.13122089  0.91343281  1  0  -0.673882  0  1.99175  0  0  -0.631803  0  2.234133  0  0  -0.657516  0  2.225773  0  -1.179574  0  -0.361958  -0.613494  0  2.239459  0
O  O118  1  0.27465000  0.63122065  0.41343065  1  0  -0.673928  0  1.991679  0  0  -0.631898  0  2.234016  0  0  -0.657602  0  2.225666  0  -1.179684  0  -0.362014  -0.613591  0  2.239344  0
O  O119  1  0.77464593  0.86878139  0.08657145  1  0  -0.673988  0  1.991823  0  0  -0.631882  0  2.234066  0  0  -0.657592  0  2.22571  0  -1.179808  0  -0.36199  -0.613574  0  2.239394  0
O  O120  1  0.41573795  0.47795908  0.30952361  1  0  -0.731043  0  2.125775  0  0  -0.677854  0  2.364192  0  0  -0.704353  0  2.35377  0  -1.194767  0  -0.393771  -0.658841  0  2.370847  0
O  O121  1  0.91573720  0.02204275  0.19047374  1  0  -0.731114  0  2.125811  0  0  -0.677891  0  2.364219  0  0  -0.704391  0  2.353802  0  -1.194847  0  -0.393814  -0.658875  0  2.370873  0
O  O122  1  0.58426221  0.52203561  0.69047757  1  0  -0.731236  0  2.125422  0  0  -0.677968  0  2.363793  0  0  -0.704475  0  2.353373  0  -1.194565  0  -0.393873  -0.658947  0  2.370461  0
O  O123  1  0.08425466  0.97796575  0.80951887  1  0  -0.731209  0  2.125681  0  0  -0.677938  0  2.363994  0  0  -0.704451  0  2.353587  0  -1.194448  0  -0.393869  -0.658921  0  2.370654  0
O  O124  1  0.59913155  0.48654296  0.19941229  1  0  -0.580103  0  1.925421  0  0  -0.53029  0  2.137134  0  0  -0.554702  0  2.129307  0  -1.163791  0  -0.297421  -0.513416  0  2.142027  0
O  O125  1  0.09913396  0.01346094  0.30058513  1  0  -0.580059  0  1.925396  0  0  -0.530318  0  2.137182  0  0  -0.554728  0  2.129351  0  -1.163763  0  -0.297461  -0.513445  0  2.142076  0
O  O126  1  0.40086860  0.51345242  0.80058891  1  0  -0.580158  0  1.925479  0  0  -0.530298  0  2.137196  0  0  -0.554706  0  2.129367  0  -1.164374  0  -0.297439  -0.513427  0  2.142091  0
O  O127  1  0.90085790  0.98655377  0.69940994  1  0  -0.580172  0  1.925718  0  0  -0.530373  0  2.137483  0  0  -0.554781  0  2.12965  0  -1.164004  0  -0.297487  -0.513497  0  2.142368  0
O  O128  1  0.20064994  0.32349827  0.37439920  1  0  -0.663157  0  1.969039  0  0  -0.623213  0  2.202397  0  0  -0.648083  0  2.193435  0  -1.178019  0  -0.375335  -0.6056  0  2.208073  0
O  O129  1  0.70065085  0.17650356  0.12559646  1  0  -0.663151  0  1.969178  0  0  -0.623193  0  2.202527  0  0  -0.648064  0  2.193561  0  -1.177901  0  -0.375359  -0.605579  0  2.208205  0
O  O130  1  0.79933860  0.67649849  0.62560035  1  0  -0.663172  0  1.969142  0  0  -0.623197  0  2.202469  0  0  -0.64807  0  2.193503  0  -1.177836  0  -0.375327  -0.605577  0  2.208152  0
O  O131  1  0.29933272  0.82350424  0.87439895  1  0  -0.663167  0  1.969189  0  0  -0.623188  0  2.202481  0  0  -0.648065  0  2.193525  0  -1.17836  0  -0.375333  -0.605571  0  2.208156  0
O  O132  1  0.37744158  0.41194613  0.46064360  1  0  -0.690083  0  2.019726  0  0  -0.629359  0  2.245296  0  0  -0.65525  0  2.23604  0  -1.190421  0  -0.357745  -0.611093  0  2.251357  0
O  O133  1  0.87744415  0.08805363  0.03935594  1  0  -0.690022  0  2.019756  0  0  -0.629289  0  2.245303  0  0  -0.655194  0  2.236062  0  -1.1904  0  -0.357737  -0.611024  0  2.251361  0
O  O134  1  0.62254364  0.58805132  0.53935654  1  0  -0.689798  0  2.019519  0  0  -0.629298  0  2.24531  0  0  -0.655213  0  2.236073  0  -1.190411  0  -0.357738  -0.611003  0  2.251352  0
O  O135  1  0.12253942  0.91195279  0.96064281  1  0  -0.689747  0  2.019602  0  0  -0.62929  0  2.245397  0  0  -0.655168  0  2.236125  0  -1.190433  0  -0.357681  -0.611022  0  2.251458  0
O  O136  1  0.74386883  0.56227483  0.39308595  1  0  -0.897193  0  1.863902  0  0  -0.857267  0  2.056518  0  0  -0.877962  0  2.025847  0  -1.300218  0  -0.642037  -0.842236  0  2.078087  0
O  O137  1  0.24386627  0.93772169  0.10691428  1  0  -0.897212  0  1.863843  0  0  -0.857283  0  2.056458  0  0  -0.877971  0  2.025786  0  -1.300201  0  -0.642075  -0.84225  0  2.078023  0
O  O138  1  0.25612303  0.43772124  0.60691471  1  0  -0.897175  0  1.863843  0  0  -0.857254  0  2.056526  0  0  -0.877945  0  2.025849  0  -1.300297  0  -0.642028  -0.84221  0  2.078097  0
O  O139  1  0.75612062  0.06227645  0.89308420  1  0  -0.897136  0  1.863941  0  0  -0.857215  0  2.056667  0  0  -0.877901  0  2.025989  0  -1.300192  0  -0.642034  -0.842179  0  2.078231  0
O  O140  1  0.89513343  0.40597062  0.28453113  1  0  -0.912153  0  1.874893  0  0  -0.871885  0  2.063122  0  0  -0.891673  0  2.030181  0  -1.243109  0  -0.640554  -0.857452  0  2.08637  0
O  O141  1  0.39513418  0.09403604  0.21546807  1  0  -0.912265  0  1.874765  0  0  -0.872057  0  2.062908  0  0  -0.891843  0  2.029965  0  -1.243109  0  -0.640535  -0.857629  0  2.086152  0
O  O142  1  0.10486838  0.59402959  0.71546741  1  0  -0.912239  0  1.874813  0  0  -0.871959  0  2.063024  0  0  -0.891755  0  2.030078  0  -1.243085  0  -0.64057  -0.857517  0  2.08628  0
O  O143  1  0.60486431  0.90597038  0.78453180  1  0  -0.912126  0  1.874843  0  0  -0.871847  0  2.063131  0  0  -0.891635  0  2.030189  0  -1.243176  0  -0.640532  -0.857412  0  2.08638  0
