# generated using pymatgen
data_CdH7C8S2N3O
_symmetry_space_group_name_H-M   'P 1'
_cell_length_a   7.93016416
_cell_length_b   8.15867854
_cell_length_c   18.15766235
_cell_angle_alpha   93.65274645
_cell_angle_beta   89.99952197
_cell_angle_gamma   90.00007823
_symmetry_Int_Tables_number   1
_chemical_formula_structural   CdH7C8S2N3O
_chemical_formula_sum   'Cd4 H28 C32 S8 N12 O4'
_cell_volume   1172.40798866
_cell_formula_units_Z   4
loop_
 _symmetry_equiv_pos_site_id
 _symmetry_equiv_pos_as_xyz
  1  'x, y, z'
loop_
 _atom_site_type_symbol
 _atom_site_label
 _atom_site_symmetry_multiplicity
 _atom_site_fract_x
 _atom_site_fract_y
 _atom_site_fract_z
 _atom_site_occupancy
 _atom_site_hle17_bader_spin_density
 _atom_site_hle17_ddec_charge
 _atom_site_hle17_ddec_spin_density
 _atom_site_hle17_ddec_sum_bond_order
 _atom_site_hle17_magmom
 _atom_site_hse06_10hf_bader_spin_density
 _atom_site_hse06_10hf_ddec_charge
 _atom_site_hse06_10hf_ddec_spin_density
 _atom_site_hse06_10hf_ddec_sum_bond_order
 _atom_site_hse06_10hf_magmom
 _atom_site_hse06_bader_spin_density
 _atom_site_hse06_ddec_charge
 _atom_site_hse06_ddec_spin_density
 _atom_site_hse06_ddec_sum_bond_order
 _atom_site_hse06_magmom
 _atom_site_pbe_bader_spin_density
 _atom_site_pbe_cm5_charge
 _atom_site_pbe_ddec_charge
 _atom_site_pbe_ddec_spin_density
 _atom_site_pbe_ddec_sum_bond_order
 _atom_site_pbe_magmom
Cd  Cd0  1  0.32854977  0.67422772  0.00202889  1  0  1.039204  0  1.959647  0  0  0.868439  0  2.443156  0  0  0.914353  0  2.397989  0  0  0.714777  0.836356  0  2.473694  0
Cd  Cd1  1  0.82854705  0.32577531  0.49796961  1  0  1.039216  0  1.959667  0  0  0.868409  0  2.443223  0  0  0.914319  0  2.398056  0  0  0.71477  0.836329  0  2.473769  0
Cd  Cd2  1  0.67144843  0.32577567  0.99797002  1  0  1.039307  0  1.959519  0  0  0.868547  0  2.443052  0  0  0.914461  0  2.397881  0  0  0.714789  0.836454  0  2.473615  0
Cd  Cd3  1  0.17144989  0.67422558  0.50203087  1  0  1.039272  0  1.959449  0  0  0.868488  0  2.442954  0  0  0.914399  0  2.397787  0  0  0.71479  0.836403  0  2.473508  0
H  H4  1  0.30276520  0.25151768  0.70899314  1  0  0.118985  0  0.949702  0  0  0.126384  0  1.011095  0  0  0.129175  0  1.01117  0  0  0.106309  0.124408  0  1.011133  0
H  H5  1  0.80276576  0.74848612  0.79100791  1  0  0.118988  0  0.949659  0  0  0.126372  0  1.011071  0  0  0.129159  0  1.011152  0  0  0.106301  0.124395  0  1.011131  0
H  H6  1  0.69723678  0.74848198  0.29100730  1  0  0.118982  0  0.949706  0  0  0.126384  0  1.01109  0  0  0.129172  0  1.011175  0  0  0.106307  0.124404  0  1.011141  0
H  H7  1  0.19723243  0.25151230  0.20899304  1  0  0.119051  0  0.949594  0  0  0.126388  0  1.011062  0  0  0.129173  0  1.011157  0  0  0.106323  0.124407  0  1.011116  0
H  H8  1  0.09489377  0.05004831  0.75402879  1  0  0.098579  0  0.950302  0  0  0.106482  0  1.01446  0  0  0.109646  0  1.011888  0  0  0.101464  0.104169  0  1.016311  0
H  H9  1  0.59489296  0.94995160  0.74597454  1  0  0.098534  0  0.950396  0  0  0.106448  0  1.01454  0  0  0.109614  0  1.011964  0  0  0.10143  0.104136  0  1.016392  0
H  H10  1  0.90511199  0.94994643  0.24597203  1  0  0.098568  0  0.950344  0  0  0.10647  0  1.01449  0  0  0.109636  0  1.011915  0  0  0.101442  0.104161  0  1.016339  0
H  H11  1  0.40511281  0.05005052  0.25402598  1  0  0.098563  0  0.950331  0  0  0.106478  0  1.014468  0  0  0.109644  0  1.011894  0  0  0.101444  0.10417  0  1.016321  0
H  H12  1  0.04923893  0.04079384  0.89119904  1  0  0.101557  0  0.998719  0  0  0.104731  0  1.069596  0  0  0.108183  0  1.068688  0  0  0.092231  0.102247  0  1.070447  0
H  H13  1  0.54923570  0.95920479  0.60880496  1  0  0.101608  0  0.998675  0  0  0.104771  0  1.069555  0  0  0.108223  0  1.068649  0  0  0.09225  0.102289  0  1.070405  0
H  H14  1  0.95076558  0.95920458  0.10880191  1  0  0.101639  0  0.998738  0  0  0.104822  0  1.069599  0  0  0.108274  0  1.068691  0  0  0.092274  0.102343  0  1.070447  0
H  H15  1  0.45076502  0.04079486  0.39119603  1  0  0.101597  0  0.998697  0  0  0.10476  0  1.069582  0  0  0.108211  0  1.068675  0  0  0.092239  0.102276  0  1.070432  0
H  H16  1  0.22194211  0.23162234  0.97682839  1  0  0.116798  0  0.93795  0  0  0.124798  0  1.000362  0  0  0.127141  0  0.998756  0  0  0.129753  0.123013  0  1.00164  0
H  H17  1  0.72193899  0.76837893  0.52317342  1  0  0.116819  0  0.93793  0  0  0.12482  0  1.000325  0  0  0.127163  0  0.998719  0  0  0.129762  0.12304  0  1.001601  0
H  H18  1  0.77805987  0.76838102  0.02317162  1  0  0.116793  0  0.937938  0  0  0.124795  0  1.000326  0  0  0.127139  0  0.998718  0  0  0.129753  0.12301  0  1.001604  0
H  H19  1  0.27806047  0.23161949  0.47682753  1  0  0.116782  0  0.937944  0  0  0.12478  0  1.000337  0  0  0.127124  0  0.998729  0  0  0.129741  0.122994  0  1.001618  0
H  H20  1  0.45904488  0.59588600  0.81978152  1  0  0.134662  0  0.942836  0  0  0.152126  0  1.006344  0  0  0.153913  0  1.005755  0  0  0.097168  0.150812  0  1.006805  0
H  H21  1  0.95904582  0.40411918  0.68021790  1  0  0.134699  0  0.942815  0  0  0.152129  0  1.006359  0  0  0.153915  0  1.005772  0  0  0.097181  0.150816  0  1.006811  0
H  H22  1  0.54095206  0.40411739  0.18021739  1  0  0.134669  0  0.942799  0  0  0.152098  0  1.006352  0  0  0.153885  0  1.005763  0  0  0.097176  0.150786  0  1.006807  0
H  H23  1  0.04094986  0.59587805  0.31978136  1  0  0.134591  0  0.942873  0  0  0.152046  0  1.006412  0  0  0.153829  0  1.005824  0  0  0.097147  0.150733  0  1.006863  0
H  H24  1  0.50169036  0.47439127  0.73568482  1  0  0.11917  0  0.974697  0  0  0.137928  0  1.036242  0  0  0.138828  0  1.037286  0  0  0.087369  0.137221  0  1.035563  0
H  H25  1  0.00169291  0.52561481  0.76431465  1  0  0.11911  0  0.974679  0  0  0.137875  0  1.036225  0  0  0.138775  0  1.03727  0  0  0.087359  0.137167  0  1.035549  0
H  H26  1  0.49830531  0.52561211  0.26431464  1  0  0.119089  0  0.974665  0  0  0.137844  0  1.036226  0  0  0.138741  0  1.037271  0  0  0.087353  0.137138  0  1.035543  0
H  H27  1  0.99830781  0.47437871  0.23568558  1  0  0.119089  0  0.974679  0  0  0.137879  0  1.036198  0  0  0.138777  0  1.037247  0  0  0.087362  0.137171  0  1.035522  0
H  H28  1  0.61909949  0.44671376  0.81817926  1  0  0.136706  0  0.938447  0  0  0.155584  0  0.999696  0  0  0.157354  0  0.999026  0  0  0.097872  0.154288  0  1.000212  0
H  H29  1  0.11909986  0.55329242  0.68181923  1  0  0.136691  0  0.93842  0  0  0.155573  0  0.999672  0  0  0.157344  0  0.999001  0  0  0.097876  0.154274  0  1.000188  0
H  H30  1  0.38089997  0.55329208  0.18181973  1  0  0.13668  0  0.938388  0  0  0.155563  0  0.999645  0  0  0.157334  0  0.998971  0  0  0.097874  0.154262  0  1.000162  0
H  H31  1  0.88089707  0.44670234  0.31818049  1  0  0.136741  0  0.938339  0  0  0.155597  0  0.999626  0  0  0.157368  0  0.998954  0  0  0.097892  0.1543  0  1.000145  0
C  C32  1  0.41701078  0.05684313  0.08402713  1  0  0.309988  0  3.998671  0  0  0.291766  0  4.298182  0  0  0.312549  0  4.314159  0  0  0.150485  0.277572  0  4.286993  0
C  C33  1  0.91701932  0.94314264  0.41597598  1  0  0.30989  0  3.999189  0  0  0.291667  0  4.298659  0  0  0.312443  0  4.314625  0  0  0.15043  0.277486  0  4.287466  0
C  C34  1  0.58297481  0.94314790  0.91597467  1  0  0.309907  0  3.999078  0  0  0.291677  0  4.298572  0  0  0.312455  0  4.314545  0  0  0.150352  0.277492  0  4.287389  0
C  C35  1  0.08296627  0.05685947  0.58402454  1  0  0.309916  0  3.999431  0  0  0.291694  0  4.298895  0  0  0.312471  0  4.314863  0  0  0.150397  0.277509  0  4.287715  0
C  C36  1  0.04588885  0.42562256  0.08281871  1  0  0.305135  0  4.001246  0  0  0.284902  0  4.304028  0  0  0.305813  0  4.319283  0  0  0.149508  0.27062  0  4.293374  0
C  C37  1  0.54588298  0.57438273  0.41717925  1  0  0.305165  0  4.000785  0  0  0.284933  0  4.303584  0  0  0.305843  0  4.318844  0  0  0.149522  0.270645  0  4.292939  0
C  C38  1  0.95411061  0.57437476  0.91717670  1  0  0.305252  0  4.001564  0  0  0.28502  0  4.304333  0  0  0.305928  0  4.319588  0  0  0.149624  0.270734  0  4.293692  0
C  C39  1  0.45412026  0.42562186  0.58282081  1  0  0.305018  0  4.001296  0  0  0.284785  0  4.304086  0  0  0.305692  0  4.319346  0  0  0.149481  0.270501  0  4.293443  0
C  C40  1  0.36956739  0.34899300  0.81693257  1  0  0.219624  0  3.662773  0  0  0.216366  0  3.918301  0  0  0.225212  0  3.936169  0  0  0.121643  0.210602  0  3.906246  0
C  C41  1  0.86956862  0.65101087  0.68306769  1  0  0.219585  0  3.662806  0  0  0.216327  0  3.918329  0  0  0.225177  0  3.9362  0  0  0.121662  0.210568  0  3.906273  0
C  C42  1  0.63043206  0.65100915  0.18306685  1  0  0.219543  0  3.662823  0  0  0.216301  0  3.91834  0  0  0.225149  0  3.936209  0  0  0.121611  0.210527  0  3.906296  0
C  C43  1  0.13042958  0.34898754  0.31693381  1  0  0.21943  0  3.662931  0  0  0.216138  0  3.918509  0  0  0.224982  0  3.936376  0  0  0.121599  0.210374  0  3.906451  0
C  C44  1  0.27936159  0.24403705  0.76779726  1  0  -0.152571  0  3.705464  0  0  -0.166641  0  3.952352  0  0  -0.174377  0  3.97288  0  0  -0.078137  -0.161897  0  3.938785  0
C  C45  1  0.77936202  0.75596549  0.73220438  1  0  -0.152532  0  3.705524  0  0  -0.166593  0  3.952409  0  0  -0.174328  0  3.972934  0  0  -0.078126  -0.161857  0  3.938851  0
C  C46  1  0.72063913  0.75596262  0.23220263  1  0  -0.152538  0  3.705514  0  0  -0.166614  0  3.952398  0  0  -0.174353  0  3.972928  0  0  -0.078123  -0.16186  0  3.938821  0
C  C47  1  0.22063617  0.24403292  0.26779712  1  0  -0.152509  0  3.705408  0  0  -0.166527  0  3.952334  0  0  -0.174263  0  3.97286  0  0  -0.078113  -0.161781  0  3.938762  0
C  C48  1  0.16378737  0.13198223  0.79308696  1  0  -0.000238  0  3.708555  0  0  -0.024428  0  3.960387  0  0  -0.018498  0  3.975405  0  0  -0.070678  -0.027989  0  3.950134  0
C  C49  1  0.66378718  0.86801897  0.70691561  1  0  -0.000191  0  3.708698  0  0  -0.024377  0  3.960508  0  0  -0.018449  0  3.975528  0  0  -0.070609  -0.027938  0  3.95026  0
C  C50  1  0.83621714  0.86801496  0.20691395  1  0  -0.000239  0  3.708526  0  0  -0.024416  0  3.960356  0  0  -0.018488  0  3.975373  0  0  -0.07066  -0.027979  0  3.950107  0
C  C51  1  0.33621480  0.13198191  0.29308542  1  0  -0.000213  0  3.708619  0  0  -0.024398  0  3.960422  0  0  -0.018471  0  3.97544  0  0  -0.070617  -0.027965  0  3.950178  0
C  C52  1  0.13901162  0.12542954  0.86891597  1  0  -0.09496  0  3.75469  0  0  -0.105385  0  4.006645  0  0  -0.112446  0  4.026808  0  0  -0.084948  -0.101129  0  3.993376  0
C  C53  1  0.63901036  0.87457165  0.63108669  1  0  -0.095007  0  3.754716  0  0  -0.105433  0  4.006675  0  0  -0.112495  0  4.026841  0  0  -0.084981  -0.101177  0  3.993404  0
C  C54  1  0.86099163  0.87457134  0.13108506  1  0  -0.095064  0  3.75475  0  0  -0.10553  0  4.006728  0  0  -0.112592  0  4.026892  0  0  -0.084994  -0.101283  0  3.993468  0
C  C55  1  0.36099035  0.12542680  0.36891316  1  0  -0.09506  0  3.754817  0  0  -0.105497  0  4.006785  0  0  -0.112558  0  4.02695  0  0  -0.085009  -0.101241  0  3.993514  0
C  C56  1  0.23047718  0.22855600  0.91705868  1  0  0.034173  0  3.594898  0  0  -0.009636  0  3.859471  0  0  -0.002541  0  3.874133  0  0  0.045067  -0.014071  0  3.849715  0
C  C57  1  0.73047544  0.77144526  0.58294366  1  0  0.034112  0  3.595073  0  0  -0.009684  0  3.859631  0  0  -0.002587  0  3.874294  0  0  0.045075  -0.014121  0  3.849876  0
C  C58  1  0.76952480  0.77144734  0.08294244  1  0  0.034258  0  3.595089  0  0  -0.0095  0  3.859605  0  0  -0.002403  0  3.874266  0  0  0.045157  -0.013931  0  3.849851  0
C  C59  1  0.26952528  0.22855191  0.41705835  1  0  0.034223  0  3.595064  0  0  -0.009545  0  3.859574  0  0  -0.002448  0  3.874234  0  0  0.045156  -0.01397  0  3.849811  0
C  C60  1  0.49397494  0.47350820  0.79577116  1  0  -0.372139  0  3.725993  0  0  -0.451442  0  3.960877  0  0  -0.454232  0  3.967507  0  0  -0.241879  -0.449241  0  3.956201  0
C  C61  1  0.99397559  0.52649824  0.70422818  1  0  -0.372072  0  3.725992  0  0  -0.451344  0  3.960857  0  0  -0.454139  0  3.967492  0  0  -0.241883  -0.449146  0  3.95617  0
C  C62  1  0.50602325  0.52649641  0.20422780  1  0  -0.371982  0  3.725844  0  0  -0.45126  0  3.960748  0  0  -0.454046  0  3.967377  0  0  -0.241856  -0.449058  0  3.956065  0
C  C63  1  0.00602134  0.47349897  0.29577218  1  0  -0.371956  0  3.725865  0  0  -0.451243  0  3.960748  0  0  -0.454033  0  3.9674  0  0  -0.241861  -0.449041  0  3.956059  0
S  S64  1  0.29622169  0.91041452  0.11151373  1  0  -0.349491  0  2.185744  0  0  -0.312293  0  2.51144  0  0  -0.331543  0  2.505574  0  0  -0.133984  -0.29856  0  2.514998  0
S  S65  1  0.79621442  0.08958597  0.38848701  1  0  -0.349659  0  2.18517  0  0  -0.312444  0  2.510838  0  0  -0.331696  0  2.504964  0  0  -0.134054  -0.298715  0  2.514396  0
S  S66  1  0.70377651  0.08958512  0.88848781  1  0  -0.3496  0  2.185429  0  0  -0.312396  0  2.511129  0  0  -0.33165  0  2.505263  0  0  -0.134032  -0.298664  0  2.514692  0
S  S67  1  0.20377747  0.91041743  0.61151135  1  0  -0.349721  0  2.185245  0  0  -0.312505  0  2.510912  0  0  -0.331757  0  2.505036  0  0  -0.13412  -0.298779  0  2.514475  0
S  S68  1  0.90493383  0.28933494  0.10287858  1  0  -0.345958  0  2.179615  0  0  -0.306717  0  2.503818  0  0  -0.325598  0  2.497301  0  0  -0.131226  -0.293271  0  2.507831  0
S  S69  1  0.40493158  0.71066568  0.39712011  1  0  -0.345903  0  2.179618  0  0  -0.306667  0  2.503836  0  0  -0.325549  0  2.497321  0  0  -0.131233  -0.293224  0  2.507852  0
S  S70  1  0.09506941  0.71066484  0.89711691  1  0  -0.345968  0  2.179489  0  0  -0.306717  0  2.503687  0  0  -0.325603  0  2.497173  0  0  -0.131248  -0.29327  0  2.507697  0
S  S71  1  0.59507166  0.28933271  0.60288194  1  0  -0.345855  0  2.179477  0  0  -0.306604  0  2.503685  0  0  -0.325487  0  2.49717  0  0  -0.131209  -0.293158  0  2.507689  0
N  N72  1  0.50201431  0.16634992  0.06605829  1  0  -0.531177  0  2.888087  0  0  -0.47436  0  3.161088  0  0  -0.495417  0  3.167946  0  0  -0.388601  -0.459911  0  3.156276  0
N  N73  1  0.00200649  0.83366027  0.43393944  1  0  -0.530895  0  2.889175  0  0  -0.474082  0  3.16213  0  0  -0.495132  0  3.16898  0  0  -0.388466  -0.459641  0  3.157306  0
N  N74  1  0.49798136  0.83365719  0.93393910  1  0  -0.530963  0  2.888806  0  0  -0.474137  0  3.161768  0  0  -0.495191  0  3.168624  0  0  -0.388413  -0.45968  0  3.156922  0
N  N75  1  0.99797658  0.16634058  0.56606269  1  0  -0.530849  0  2.889353  0  0  -0.474033  0  3.162314  0  0  -0.495084  0  3.169166  0  0  -0.388367  -0.459579  0  3.157469  0
N  N76  1  0.15063844  0.52340610  0.07074589  1  0  -0.52871  0  2.879389  0  0  -0.472416  0  3.154767  0  0  -0.493288  0  3.161582  0  0  -0.387251  -0.458106  0  3.149996  0
N  N77  1  0.65063977  0.47659922  0.42925389  1  0  -0.528793  0  2.878948  0  0  -0.472505  0  3.154339  0  0  -0.493377  0  3.161157  0  0  -0.387283  -0.458198  0  3.149588  0
N  N78  1  0.84937111  0.47659491  0.92924964  1  0  -0.528821  0  2.879793  0  0  -0.472544  0  3.155184  0  0  -0.493415  0  3.161999  0  0  -0.387357  -0.458236  0  3.150424  0
N  N79  1  0.34938239  0.52340659  0.57074620  1  0  -0.528695  0  2.879513  0  0  -0.47243  0  3.154927  0  0  -0.493306  0  3.161756  0  0  -0.387273  -0.45812  0  3.15016  0
N  N80  1  0.34253319  0.33629564  0.89079448  1  0  0.199925  0  3.667536  0  0  0.245993  0  3.926461  0  0  0.24264  0  3.948616  0  0  -0.120356  0.247577  0  3.911501  0
N  N81  1  0.84253206  0.66370820  0.60920587  1  0  0.199909  0  3.667619  0  0  0.245943  0  3.926562  0  0  0.242584  0  3.94872  0  0  -0.120423  0.247529  0  3.911601  0
N  N82  1  0.65746879  0.66370649  0.10920549  1  0  0.199814  0  3.667716  0  0  0.245846  0  3.926653  0  0  0.24249  0  3.94881  0  0  -0.120449  0.24743  0  3.911704  0
N  N83  1  0.15746739  0.33629146  0.39079457  1  0  0.199962  0  3.667755  0  0  0.246008  0  3.926697  0  0  0.242654  0  3.948852  0  0  -0.120408  0.247593  0  3.911737  0
O  O84  1  0.43233548  0.43192002  0.93846401  1  0  -0.559318  0  1.97536  0  0  -0.492262  0  2.250778  0  0  -0.516937  0  2.246568  0  0  -0.256597  -0.474794  0  2.253242  0
O  O85  1  0.93233513  0.56808391  0.56153547  1  0  -0.559314  0  1.97542  0  0  -0.492189  0  2.250771  0  0  -0.516855  0  2.246552  0  0  -0.256577  -0.47472  0  2.253231  0
O  O86  1  0.56766523  0.56808335  0.06153545  1  0  -0.559267  0  1.975319  0  0  -0.492174  0  2.2507  0  0  -0.516847  0  2.24649  0  0  -0.256562  -0.474684  0  2.25312  0
O  O87  1  0.06766685  0.43191450  0.43846603  1  0  -0.559344  0  1.975457  0  0  -0.492205  0  2.250747  0  0  -0.516873  0  2.24653  0  0  -0.256585  -0.47474  0  2.253214  0
