# generated using pymatgen
data_CdH4C8S2N5
_symmetry_space_group_name_H-M   'P 1'
_cell_length_a   9.72519823
_cell_length_b   9.73780169
_cell_length_c   13.96234480
_cell_angle_alpha   82.94105229
_cell_angle_beta   82.94640851
_cell_angle_gamma   84.10359267
_symmetry_Int_Tables_number   1
_chemical_formula_structural   CdH4C8S2N5
_chemical_formula_sum   'Cd4 H16 C32 S8 N20'
_cell_volume   1297.14288841
_cell_formula_units_Z   4
loop_
 _symmetry_equiv_pos_site_id
 _symmetry_equiv_pos_as_xyz
  1  'x, y, z'
loop_
 _atom_site_type_symbol
 _atom_site_label
 _atom_site_symmetry_multiplicity
 _atom_site_fract_x
 _atom_site_fract_y
 _atom_site_fract_z
 _atom_site_occupancy
 _atom_site_pbe_bader_charge
 _atom_site_pbe_bader_spin_density
 _atom_site_pbe_cm5_charge
 _atom_site_pbe_ddec_charge
 _atom_site_pbe_ddec_spin_density
 _atom_site_pbe_ddec_sum_bond_order
 _atom_site_pbe_magmom
Cd  Cd0  1  0.26241078  0.85799488  0.51632634  1  1.175913  0  0.735371  0.766638  0  2.479166  0
Cd  Cd1  1  0.14195022  0.73748544  0.98362763  1  1.175584  0  0.734877  0.766223  0  2.478067  0
Cd  Cd2  1  0.73754150  0.14200768  0.48367356  1  1.176041  0  0.735373  0.766601  0  2.479319  0
Cd  Cd3  1  0.85809038  0.26244396  0.01636236  1  1.175246  0  0.734834  0.766273  0  2.47817  0
H  H4  1  0.17509753  0.76399183  0.33423222  1  0.112021  0  0.098074  0.055166  0  1.080801  0
H  H5  1  0.23563996  0.82495467  0.16581279  1  0.110603  0  0.097838  0.055043  0  1.081788  0
H  H6  1  0.82495756  0.23600444  0.66573331  1  0.112605  0  0.098085  0.05518  0  1.080695  0
H  H7  1  0.76439865  0.17511563  0.83416478  1  0.109927  0  0.097794  0.054855  0  1.08212  0
H  H8  1  0.12085182  0.57259428  0.24471924  1  0.119684  0  0.102848  0.117562  0  1.020155  0
H  H9  1  0.42728747  0.87919658  0.25530440  1  0.118743  0  0.102804  0.117329  0  1.020557  0
H  H10  1  0.87931654  0.42737000  0.75522403  1  0.12053  0  0.102875  0.117619  0  1.01997  0
H  H11  1  0.57273447  0.12094343  0.74465768  1  0.128091  0  0.102756  0.117269  0  1.020886  0
H  H12  1  0.12363320  0.33119194  0.32868654  1  0.136412  0  0.102464  0.103568  0  1.041081  0
H  H13  1  0.66900735  0.87618395  0.17141854  1  0.134592  0  0.102356  0.103464  0  1.041942  0
H  H14  1  0.87646250  0.66879660  0.67128180  1  0.136171  0  0.102442  0.103632  0  1.041164  0
H  H15  1  0.33101985  0.12389879  0.82856251  1  0.135217  0  0.102334  0.103401  0  1.041638  0
H  H16  1  0.18817230  0.28873297  0.50045258  1  0.138521  0  0.101959  0.113669  0  1.046674  0
H  H17  1  0.71162459  0.81136617  0.99972242  1  0.136658  0  0.102022  0.1133  0  1.047078  0
H  H18  1  0.81172807  0.71128986  0.49956231  1  0.138492  0  0.101844  0.113698  0  1.04669  0
H  H19  1  0.28842551  0.18863492  0.00027392  1  0.137296  0  0.102011  0.1134  0  1.047136  0
C  C20  1  0.18006057  0.65659637  0.36797298  1  0.449375  0  0.045153  0.097997  0  3.950009  0
C  C21  1  0.34319464  0.81990239  0.13209980  1  0.459068  0  0.045688  0.098777  0  3.950057  0
C  C22  1  0.81995505  0.34340659  0.63200335  1  0.452719  0  0.045149  0.098009  0  3.950026  0
C  C23  1  0.65685025  0.18013017  0.86788918  1  0.457378  0  0.045809  0.099119  0  3.949948  0
C  C24  1  0.14758191  0.55011350  0.31871866  1  0.013766  0  -0.070834  -0.098487  0  3.922837  0
C  C25  1  0.44980301  0.85241147  0.18133077  1  0.005376  0  -0.07086  -0.09844  0  3.922989  0
C  C26  1  0.85248673  0.44987642  0.68125125  1  0.009516  0  -0.07082  -0.098463  0  3.923308  0
C  C27  1  0.55022832  0.14767293  0.81864547  1  -0.002967  0  -0.07077  -0.09839  0  3.922633  0
C  C28  1  0.14951951  0.41566725  0.36549434  1  -0.087829  0  -0.054695  0.001096  0  3.921826  0
C  C29  1  0.58443779  0.85034993  0.13459547  1  -0.087711  0  -0.054865  0.000515  0  3.922162  0
C  C30  1  0.85051073  0.58433241  0.63449029  1  -0.088195  0  -0.05463  0.000889  0  3.922144  0
C  C31  1  0.41559982  0.14970499  0.86539001  1  -0.086065  0  -0.054726  0.000864  0  3.921292  0
C  C32  1  0.18574744  0.39185959  0.45990003  1  0.044599  0  -0.062782  -0.126836  0  3.873177  0
C  C33  1  0.60834768  0.81393459  0.04025206  1  0.04922  0  -0.062542  -0.125013  0  3.871427  0
C  C34  1  0.81417580  0.60815704  0.54011266  1  0.043843  0  -0.062535  -0.126468  0  3.873151  0
C  C35  1  0.39170661  0.18606409  0.95974913  1  0.048204  0  -0.062569  -0.125502  0  3.87138  0
C  C36  1  0.22185772  0.50382323  0.50281470  1  0.572495  0  0.134481  0.204378  0  4.043756  0
C  C37  1  0.49627058  0.77771966  0.99737560  1  0.570472  0  0.134329  0.203531  0  4.043896  0
C  C38  1  0.77800418  0.49620823  0.49720570  1  0.573461  0  0.134309  0.204182  0  4.044509  0
C  C39  1  0.50378580  0.22225921  0.00263148  1  0.569724  0  0.134406  0.204539  0  4.043816  0
C  C40  1  0.26642478  0.47485740  0.59794483  1  0.832192  0  0.183205  0.205337  0  3.95929  0
C  C41  1  0.52530545  0.73288272  0.90233690  1  0.834681  0  0.183148  0.205558  0  3.958048  0
C  C42  1  0.73330418  0.52519861  0.40211458  1  0.833957  0  0.182836  0.205151  0  3.959428  0
C  C43  1  0.47475514  0.26704307  0.09768458  1  0.835422  0  0.18293  0.204709  0  3.957803  0
C  C44  1  0.93353549  0.91418170  0.61198024  1  0.615477  0  0.159019  0.286586  0  4.267649  0
C  C45  1  0.08589853  0.06632586  0.88809423  1  0.61547  0  0.159422  0.286683  0  4.266182  0
C  C46  1  0.06640649  0.08583845  0.38803261  1  0.615844  0  0.159369  0.286977  0  4.267072  0
C  C47  1  0.91415366  0.93359440  0.11191917  1  0.61518  0  0.159124  0.286167  0  4.26712  0
C  C48  1  0.58509855  0.86793004  0.43433734  1  0.576371  0  0.154602  0.284763  0  4.290236  0
C  C49  1  0.13200962  0.41488594  0.06574618  1  0.541282  0  0.154713  0.284842  0  4.290556  0
C  C50  1  0.41484543  0.13207638  0.56566439  1  0.579158  0  0.154747  0.285172  0  4.290969  0
C  C51  1  0.86801860  0.58504779  0.93426028  1  0.574764  0  0.154357  0.284267  0  4.290652  0
S  S52  1  0.22465648  0.02556402  0.35289740  1  0.076005  0  -0.113229  -0.258622  0  2.507575  0
S  S53  1  0.97425050  0.77542190  0.14704072  1  0.075809  0  -0.11331  -0.258749  0  2.507783  0
S  S54  1  0.77527288  0.97442607  0.64710137  1  0.076182  0  -0.113072  -0.258351  0  2.507536  0
S  S55  1  0.02578707  0.22449236  0.85296522  1  0.075813  0  -0.113347  -0.258901  0  2.507378  0
S  S56  1  0.27814245  0.06973987  0.62787593  1  0.090146  0  -0.128799  -0.272504  0  2.465675  0
S  S57  1  0.93023557  0.72175971  0.87210873  1  0.089769  0  -0.128734  -0.272155  0  2.466605  0
S  S58  1  0.72180154  0.93027174  0.37212749  1  0.090119  0  -0.128686  -0.272199  0  2.465588  0
S  S59  1  0.06979777  0.27816623  0.12788508  1  0.122741  0  -0.128697  -0.272298  0  2.466526  0
N  N60  1  0.21830678  0.63586789  0.45821010  1  -1.179681  0  -0.304897  -0.262968  0  3.389823  0
N  N61  1  0.36404149  0.78142863  0.04193745  1  -1.179799  0  -0.305525  -0.26347  0  3.390809  0
N  N62  1  0.78160807  0.36415253  0.54179369  1  -1.179555  0  -0.304884  -0.262984  0  3.389824  0
N  N63  1  0.63601280  0.21855453  0.95806514  1  -1.179978  0  -0.305714  -0.264081  0  3.391622  0
N  N64  1  0.28851747  0.73306892  0.70990981  1  0.060983  0  0.018335  0.035919  0  2.958482  0
N  N65  1  0.26701892  0.71164479  0.79011169  1  -0.079505  0  0.018923  0.036487  0  2.959082  0
N  N66  1  0.71154509  0.26696618  0.29007594  1  0.061886  0  0.018341  0.035895  0  2.958108  0
N  N67  1  0.73304258  0.28837281  0.20987429  1  -0.080431  0  0.01891  0.036482  0  2.958774  0
N  N68  1  0.30288147  0.44037391  0.67455228  1  -1.100983  0  -0.289655  -0.322813  0  2.739787  0
N  N69  1  0.55979112  0.69633530  0.82576684  1  -1.101579  0  -0.289499  -0.322968  0  2.738829  0
N  N70  1  0.69677787  0.55968222  0.32552693  1  -1.102897  0  -0.289347  -0.322765  0  2.739247  0
N  N71  1  0.44025804  0.30355018  0.17426499  1  -1.101817  0  -0.289365  -0.322504  0  2.738484  0
N  N72  1  0.04580236  0.86178047  0.58895932  1  -1.296852  0  -0.399756  -0.461172  0  3.20808  0
N  N73  1  0.13822901  0.95413806  0.91112427  1  -1.296537  0  -0.399761  -0.461035  0  3.205545  0
N  N74  1  0.95415221  0.13825935  0.41106499  1  -1.296942  0  -0.399932  -0.46132  0  3.207967  0
N  N75  1  0.86183356  0.04578745  0.08888345  1  -1.296251  0  -0.399548  -0.460667  0  3.205465  0
N  N76  1  0.48859387  0.81801200  0.48083280  1  -1.278347  0  -0.411288  -0.469906  0  3.173587  0
N  N77  1  0.18181831  0.51141166  0.01932156  1  -1.275591  0  -0.410848  -0.469595  0  3.174007  0
N  N78  1  0.51135852  0.18199585  0.51918238  1  -1.281431  0  -0.411333  -0.470083  0  3.174629  0
N  N79  1  0.81821313  0.48853017  0.98069821  1  -1.275876  0  -0.410412  -0.469073  0  3.173604  0
