# generated using pymatgen
data_ZnH17C25(NO)5
_symmetry_space_group_name_H-M   'P 1'
_cell_length_a   10.78704419
_cell_length_b   14.59098388
_cell_length_c   21.90142986
_cell_angle_alpha   92.81951832
_cell_angle_beta   89.98923166
_cell_angle_gamma   111.70961514
_symmetry_Int_Tables_number   1
_chemical_formula_structural   ZnH17C25(NO)5
_chemical_formula_sum   'Zn4 H68 C100 N20 O20'
_cell_volume   3198.16105437
_cell_formula_units_Z   4
loop_
 _symmetry_equiv_pos_site_id
 _symmetry_equiv_pos_as_xyz
  1  'x, y, z'
loop_
 _atom_site_type_symbol
 _atom_site_label
 _atom_site_symmetry_multiplicity
 _atom_site_fract_x
 _atom_site_fract_y
 _atom_site_fract_z
 _atom_site_occupancy
 _atom_site_pbe_bader_charge
 _atom_site_pbe_bader_spin_density
 _atom_site_pbe_cm5_charge
 _atom_site_pbe_ddec_charge
 _atom_site_pbe_ddec_spin_density
 _atom_site_pbe_ddec_sum_bond_order
 _atom_site_pbe_magmom
Zn  Zn0  1  0.65169521  0.53639249  0.80123209  1  1.258664  0  0.695043  0.778191  0  2.400079  0
Zn  Zn1  1  0.11520668  0.46365902  0.69874276  1  1.25856  0  0.69484  0.778025  0  2.400862  0
Zn  Zn2  1  0.34830442  0.46360739  0.19876759  1  1.258767  0  0.695035  0.77815  0  2.400075  0
Zn  Zn3  1  0.88479332  0.53634160  0.30125786  1  1.258397  0  0.694837  0.778036  0  2.400835  0
H  H4  1  0.79123339  0.58094295  0.93432733  1  0.203152  0  0.14509  0.124945  0  1.003838  0
H  H5  1  0.21014133  0.41886558  0.56579790  1  0.228268  0  0.14462  0.124403  0  1.004074  0
H  H6  1  0.20876680  0.41905619  0.06567324  1  0.20319  0  0.145102  0.124984  0  1.003784  0
H  H7  1  0.78985625  0.58113578  0.43420319  1  0.228252  0  0.144616  0.124389  0  1.00406  0
H  H8  1  0.96357019  0.62369179  0.75953573  1  0.154667  0  0.122378  0.122744  0  1.016349  0
H  H9  1  0.33993623  0.37633692  0.74059067  1  0.151216  0  0.122573  0.122855  0  1.015504  0
H  H10  1  0.03642759  0.37630809  0.24046487  1  0.154673  0  0.122388  0.122783  0  1.016443  0
H  H11  1  0.66006506  0.62366444  0.25940951  1  0.151219  0  0.122567  0.122867  0  1.015508  0
H  H12  1  0.16583216  0.67168863  0.84592380  1  0.112689  0  0.122627  0.123899  0  1.041513  0
H  H13  1  0.49400475  0.32822488  0.65416032  1  0.139509  0  0.122822  0.124311  0  1.041737  0
H  H14  1  0.83416692  0.32831198  0.15407636  1  0.112658  0  0.122645  0.123926  0  1.04151  0
H  H15  1  0.50599469  0.67177648  0.34583941  1  0.139555  0  0.122842  0.124362  0  1.041801  0
H  H16  1  0.26502984  0.69531344  0.93145101  1  0.111822  0  0.105236  0.11465  0  1.073097  0
H  H17  1  0.56950656  0.30456134  0.56854434  1  0.109673  0  0.105282  0.114416  0  1.073365  0
H  H18  1  0.73496941  0.30468940  0.06854968  1  0.111798  0  0.105229  0.114646  0  1.073103  0
H  H19  1  0.43049177  0.69543780  0.43145623  1  0.109692  0  0.105228  0.114347  0  1.073387  0
H  H20  1  0.36500477  0.70866547  0.03582359  1  0.098795  0  0.113205  0.1122  0  0.994452  0
H  H21  1  0.65609229  0.29123148  0.46414429  1  0.10761  0  0.112965  0.112461  0  0.994566  0
H  H22  1  0.63499486  0.29133441  0.96417700  1  0.098785  0  0.113196  0.112166  0  0.994495  0
H  H23  1  0.34390753  0.70876693  0.53585717  1  0.107398  0  0.112954  0.112462  0  0.994606  0
H  H24  1  0.21522847  0.65769964  0.12519133  1  0.166414  0  0.109317  0.126251  0  1.078123  0
H  H25  1  0.55733521  0.34226210  0.37481661  1  0.168814  0  0.109726  0.126485  0  1.077215  0
H  H26  1  0.78477098  0.34229803  0.87480874  1  0.166409  0  0.1093  0.126171  0  1.078178  0
H  H27  1  0.44266757  0.65773852  0.62518400  1  0.1688  0  0.109735  0.1265  0  1.077189  0
H  H28  1  0.08402339  0.62123313  0.19548947  1  0.194353  0  0.142752  0.127015  0  1.020243  0
H  H29  1  0.46245921  0.37860877  0.30451559  1  0.212135  0  0.143358  0.128008  0  1.019761  0
H  H30  1  0.91597551  0.37876527  0.80451154  1  0.194353  0  0.142751  0.127032  0  1.020218  0
H  H31  1  0.53754543  0.62139185  0.69548366  1  0.211716  0  0.143377  0.128048  0  1.019673  0
H  H32  1  0.75743792  0.53188113  0.06805631  1  0.175544  0  0.134646  0.142634  0  0.990179  0
H  H33  1  0.22588490  0.46845842  0.43206795  1  0.165079  0  0.13467  0.142901  0  0.989774  0
H  H34  1  0.24256246  0.46811653  0.93194421  1  0.17553  0  0.134655  0.142657  0  0.990138  0
H  H35  1  0.77411714  0.53154072  0.56793080  1  0.165037  0  0.134689  0.142927  0  0.989699  0
H  H36  1  0.66363666  0.48177748  0.18504558  1  0.178222  0  0.123862  0.131852  0  1.02159  0
H  H37  1  0.18176468  0.51816263  0.31504231  1  0.163779  0  0.123623  0.131174  0  1.02178  0
H  H38  1  0.33636353  0.51822167  0.81495544  1  0.178295  0  0.123878  0.131885  0  1.021539  0
H  H39  1  0.81823495  0.48183355  0.68495680  1  0.163636  0  0.123604  0.131121  0  1.021826  0
H  H40  1  0.67143058  0.19075497  0.79875422  1  0.094921  0  0.106561  0.108197  0  0.999801  0
H  H41  1  0.48042633  0.80918469  0.70113988  1  0.090724  0  0.106304  0.107639  0  1.000884  0
H  H42  1  0.32856942  0.80924565  0.20124594  1  0.094912  0  0.106577  0.108221  0  0.999744  0
H  H43  1  0.51957015  0.19081445  0.29885977  1  0.090683  0  0.106322  0.107705  0  1.000924  0
H  H44  1  0.57826600  0.02545630  0.84260241  1  0.057259  0  0.105523  0.124428  0  1.006637  0
H  H45  1  0.55268117  0.97459010  0.65741612  1  0.108289  0  0.105643  0.124677  0  1.005546  0
H  H46  1  0.42173400  0.97454432  0.15739775  1  0.057247  0  0.105512  0.124403  0  1.006657  0
H  H47  1  0.44731809  0.02540904  0.34258354  1  0.108221  0  0.105664  0.124655  0  1.005606  0
H  H48  1  0.26238085  0.10206026  0.92322124  1  0.06121  0  0.111496  0.128005  0  0.976921  0
H  H49  1  0.16015326  0.89796712  0.57686470  1  0.081936  0  0.111821  0.128855  0  0.976878  0
H  H50  1  0.73761915  0.89794036  0.07677846  1  0.061205  0  0.1115  0.128036  0  0.976838  0
H  H51  1  0.83984451  0.10203276  0.42313498  1  0.081978  0  0.111807  0.128824  0  0.976955  0
H  H52  1  0.35792628  0.26861010  0.87853857  1  0.12298  0  0.107563  0.113682  0  0.994953  0
H  H53  1  0.08894760  0.73139394  0.62152861  1  0.118641  0  0.107592  0.113612  0  0.994484  0
H  H54  1  0.64207280  0.73139052  0.12146113  1  0.123009  0  0.107562  0.113682  0  0.994991  0
H  H55  1  0.91104795  0.26860521  0.37847150  1  0.118699  0  0.107562  0.113614  0  0.99442  0
H  H56  1  0.50756375  0.91895251  0.99289238  1  0.098314  0  0.103339  0.116719  0  1.035195  0
H  H57  1  0.58831879  0.08112098  0.50704508  1  0.106732  0  0.10319  0.116834  0  1.03534  0
H  H58  1  0.49243792  0.08104959  0.00710828  1  0.098173  0  0.103338  0.116711  0  1.035267  0
H  H59  1  0.41168084  0.91887889  0.49295323  1  0.106725  0  0.103197  0.116855  0  1.035364  0
H  H60  1  0.59251072  0.78079038  0.97571459  1  0.10424  0  0.103005  0.104227  0  1.016329  0
H  H61  1  0.81145016  0.21936369  0.52426272  1  0.097341  0  0.103128  0.104861  0  1.016776  0
H  H62  1  0.40749150  0.21921098  0.02428651  1  0.104233  0  0.102984  0.104202  0  1.016394  0
H  H63  1  0.18855040  0.78063619  0.47573605  1  0.097378  0  0.103152  0.104913  0  1.016746  0
H  H64  1  0.41917872  0.72137096  0.79463429  1  0.170076  0  0.101842  0.115905  0  1.060103  0
H  H65  1  0.69750653  0.27847826  0.70540241  1  0.16567  0  0.101635  0.115151  0  1.061171  0
H  H66  1  0.58081999  0.27862892  0.20536676  1  0.170054  0  0.101856  0.115938  0  1.060128  0
H  H67  1  0.30249421  0.72152014  0.29459631  1  0.165615  0  0.10165  0.115162  0  1.06106  0
H  H68  1  0.33034738  0.85705312  0.81203659  1  0.07434  0  0.107811  0.124679  0  0.990415  0
H  H69  1  0.47292910  0.14273412  0.68794648  1  0.054331  0  0.107538  0.124203  0  0.991171  0
H  H70  1  0.66965003  0.14294602  0.18796398  1  0.074318  0  0.107821  0.124716  0  0.990403  0
H  H71  1  0.52707202  0.85726502  0.31205317  1  0.054283  0  0.107537  0.124203  0  0.991149  0
C  C72  1  0.86370616  0.59664955  0.89834744  1  0.975282  0  0.158762  0.129591  0  3.856352  0
C  C73  1  0.26698448  0.40322503  0.60177206  1  0.945764  0  0.158959  0.130019  0  3.857302  0
C  C74  1  0.13629292  0.40335107  0.10165318  1  0.975289  0  0.158795  0.129608  0  3.856273  0
C  C75  1  0.73301534  0.59677706  0.39822769  1  0.94577  0  0.158967  0.130067  0  3.857208  0
C  C76  1  0.95722050  0.62188595  0.80889954  1  0.403399  0  0.006199  -0.01921  0  3.96189  0
C  C77  1  0.33533647  0.37813495  0.69122392  1  0.382434  0  0.006087  -0.018303  0  3.958158  0
C  C78  1  0.04277783  0.37811320  0.19110149  1  0.396522  0  0.006157  -0.019321  0  3.961998  0
C  C79  1  0.66466353  0.62186567  0.30877624  1  0.382525  0  0.006059  -0.018373  0  3.95823  0
C  C80  1  0.05892008  0.64603999  0.85120346  1  0.295661  0  0.002733  -0.091709  0  3.900292  0
C  C81  1  0.41279505  0.35390172  0.64888252  1  0.285075  0  0.001897  -0.093441  0  3.899824  0
C  C82  1  0.94107732  0.35395915  0.14879666  1  0.302474  0  0.002691  -0.091717  0  3.900264  0
C  C83  1  0.58720439  0.64609963  0.35111720  1  0.284875  0  0.00189  -0.093495  0  3.899858  0
C  C84  1  0.06288270  0.63974381  0.96582389  1  0.853692  0  0.22843  0.325758  0  4.04038  0
C  C85  1  0.42295613  0.36013355  0.53422790  1  0.873601  0  0.227651  0.324597  0  4.040405  0
C  C86  1  0.93711638  0.36025681  0.03417673  1  0.853782  0  0.228482  0.325879  0  4.0402  0
C  C87  1  0.57704387  0.63986707  0.46577226  1  0.873482  0  0.227673  0.324613  0  4.040395  0
C  C88  1  0.20171022  0.67456413  0.97098317  1  0.068963  0  -0.089865  -0.225339  0  3.956245  0
C  C89  1  0.52690027  0.32527590  0.52902969  1  -0.00641  0  -0.089741  -0.223446  0  3.954962  0
C  C90  1  0.79828774  0.32543427  0.02901783  1  0.068538  0  -0.089922  -0.225481  0  3.956207  0
C  C91  1  0.47310084  0.67472324  0.47097088  1  -0.006404  0  -0.089692  -0.223357  0  3.954981  0
C  C92  1  0.25708133  0.68181325  0.02934727  1  -0.030792  0  -0.060489  0.021371  0  3.953017  0
C  C93  1  0.57502021  0.31805720  0.47063905  1  0.000681  0  -0.060004  0.020406  0  3.953616  0
C  C94  1  0.74291793  0.31818589  0.97065239  1  -0.030394  0  -0.060428  0.021446  0  3.953029  0
C  C95  1  0.42498128  0.68194268  0.52936155  1  0.000781  0  -0.060045  0.020315  0  3.953689  0
C  C96  1  0.17448225  0.65427353  0.07933258  1  0.011916  0  -0.092179  -0.231782  0  3.946271  0
C  C97  1  0.51997094  0.34563422  0.42068550  1  -0.033074  0  -0.092582  -0.231725  0  3.944149  0
C  C98  1  0.82551665  0.34572488  0.92066797  1  0.01191  0  -0.092172  -0.231637  0  3.946233  0
C  C99  1  0.48003277  0.65436640  0.57931512  1  -0.032891  0  -0.09251  -0.231663  0  3.944106  0
C  C100  1  0.03691163  0.61995285  0.06804239  1  0.834374  0  0.228752  0.328038  0  4.044916  0
C  C101  1  0.41683702  0.38003824  0.43201552  1  0.914891  0  0.228883  0.328179  0  4.04263  0
C  C102  1  0.96308763  0.38004630  0.93195818  1  0.834509  0  0.228736  0.327962  0  4.044963  0
C  C103  1  0.58316576  0.61996237  0.56798419  1  0.914856  0  0.228829  0.328122  0  4.042782  0
C  C104  1  0.98226038  0.59162168  0.17729323  1  0.966675  0  0.152825  0.11055  0  3.85316  0
C  C105  1  0.39042283  0.40829482  0.32275759  1  0.950835  0  0.152694  0.109801  0  3.856023  0
C  C106  1  0.01773889  0.40837746  0.82270779  1  0.966661  0  0.152845  0.110552  0  3.853029  0
C  C107  1  0.60958106  0.59170432  0.67724161  1  0.951211  0  0.152724  0.109846  0  3.855921  0
C  C108  1  0.80886810  0.54257343  0.11174258  1  0.212374  0  0.007902  -0.088357  0  3.888659  0
C  C109  1  0.26642126  0.45761544  0.38835027  1  0.228695  0  0.007485  -0.088973  0  3.887007  0
C  C110  1  0.19113135  0.45742423  0.88825748  1  0.212356  0  0.007902  -0.088395  0  3.888596  0
C  C111  1  0.73358171  0.54238370  0.61164938  1  0.228693  0  0.007485  -0.088996  0  3.887168  0
C  C112  1  0.76475227  0.51948137  0.16972921  1  0.431177  0  0.007156  -0.02009  0  3.952473  0
C  C113  1  0.24520079  0.48051742  0.33035428  1  0.453579  0  0.00843  -0.017777  0  3.950647  0
C  C114  1  0.23524662  0.48051704  0.83027179  1  0.431153  0  0.007143  -0.020123  0  3.952406  0
C  C115  1  0.75479995  0.51948098  0.66964353  1  0.453793  0  0.008495  -0.017642  0  3.950755  0
C  C116  1  0.58760103  0.34193171  0.81356454  1  1.531414  0  0.194183  0.55275  0  4.231097  0
C  C117  1  0.24532716  0.65804908  0.68637260  1  1.518468  0  0.193728  0.552602  0  4.231014  0
C  C118  1  0.41240046  0.65806817  0.18643606  1  1.531396  0  0.194251  0.552882  0  4.230966  0
C  C119  1  0.75467062  0.34195080  0.31362708  1  1.518237  0  0.193782  0.552721  0  4.231024  0
C  C120  1  0.52101107  0.24026835  0.83575513  1  -0.042792  0  -0.03538  -0.075777  0  4.012426  0
C  C121  1  0.28044144  0.75972182  0.66422851  1  -0.032891  0  -0.035138  -0.075483  0  4.01344  0
C  C122  1  0.47898893  0.75973227  0.16424549  1  -0.042759  0  -0.035419  -0.075959  0  4.012406  0
C  C123  1  0.71955504  0.24027732  0.33577024  1  -0.032963  0  -0.035108  -0.075424  0  4.013589  0
C  C124  1  0.58108496  0.17065873  0.82564561  1  -0.011696  0  -0.084085  -0.067118  0  4.009456  0
C  C125  1  0.41021748  0.82935359  0.67431622  1  0.017852  0  -0.084414  -0.067195  0  4.008738  0
C  C126  1  0.41891411  0.82934189  0.17435455  1  -0.011695  0  -0.08409  -0.067066  0  4.009323  0
C  C127  1  0.58977937  0.17064629  0.32568254  1  0.017758  0  -0.084425  -0.067345  0  4.008831  0
C  C128  1  0.52941652  0.07822619  0.85020890  1  -0.01097  0  -0.111196  -0.22603  0  4.013264  0
C  C129  1  0.45098803  0.92183692  0.64983266  1  -0.077287  0  -0.110696  -0.225943  0  4.011909  0
C  C130  1  0.47058348  0.92177443  0.14979080  1  -0.011102  0  -0.111187  -0.226015  0  4.013229  0
C  C131  1  0.54900901  0.07816148  0.35016652  1  -0.077236  0  -0.110709  -0.225847  0  4.011886  0
C  C132  1  0.41500143  0.05475660  0.88583668  1  0.394928  0  0.088202  0.269554  0  4.050921  0
C  C133  1  0.36003005  0.94528276  0.61423694  1  0.373945  0  0.088048  0.270124  0  4.050522  0
C  C134  1  0.58499857  0.94524402  0.11416302  1  0.395056  0  0.088162  0.269518  0  4.050844  0
C  C135  1  0.63996772  0.05471712  0.38576228  1  0.374276  0  0.088006  0.270098  0  4.050523  0
C  C136  1  0.35154143  0.12244104  0.89544033  1  0.02929  0  -0.102318  -0.206766  0  3.997135  0
C  C137  1  0.22883094  0.87758231  0.60465461  1  0.014574  0  -0.102962  -0.208509  0  3.996805  0
C  C138  1  0.64845857  0.87755958  0.10455938  1  0.029292  0  -0.10227  -0.20676  0  3.996933  0
C  C139  1  0.77116684  0.12241757  0.39534462  1  0.014233  0  -0.10294  -0.2085  0  3.996894  0
C  C140  1  0.40457826  0.21450844  0.87048965  1  -0.085826  0  -0.081308  -0.070536  0  3.990796  0
C  C141  1  0.18976029  0.78551188  0.62958445  1  -0.078635  0  -0.081656  -0.069934  0  3.992683  0
C  C142  1  0.59542174  0.78549218  0.12951051  1  -0.085823  0  -0.081348  -0.070535  0  3.990791  0
C  C143  1  0.81023749  0.21448799  0.37041477  1  -0.07831  0  -0.081635  -0.06994  0  3.992769  0
C  C144  1  0.41483483  0.89488303  0.90340358  1  0.425734  0  0.077592  0.246812  0  4.057933  0
C  C145  1  0.51962203  0.10510042  0.59656272  1  0.373731  0  0.078166  0.248544  0  4.056783  0
C  C146  1  0.58516609  0.10511759  0.09659704  1  0.425759  0  0.077547  0.246769  0  4.057891  0
C  C147  1  0.48037760  0.89489946  0.40343605  1  0.373965  0  0.078196  0.248584  0  4.056756  0
C  C148  1  0.48880808  0.87530290  0.94972663  1  -0.024975  0  -0.10092  -0.198107  0  3.990673  0
C  C149  1  0.61318195  0.12475425  0.55021140  1  -0.074286  0  -0.101219  -0.198199  0  3.989831  0
C  C150  1  0.51119377  0.12469772  0.05027353  1  -0.024793  0  -0.10092  -0.198158  0  3.990712  0
C  C151  1  0.38681860  0.87524563  0.44978737  1  -0.07433  0  -0.101226  -0.198228  0  3.989875  0
C  C152  1  0.53635791  0.79908266  0.94001462  1  -0.100045  0  -0.083005  -0.077482  0  3.986318  0
C  C153  1  0.73697033  0.20103617  0.55994161  1  -0.062219  0  -0.083502  -0.078889  0  3.985946  0
C  C154  1  0.46364210  0.20091796  0.05998600  1  -0.100111  0  -0.083017  -0.077421  0  3.9863  0
C  C155  1  0.26303042  0.79896223  0.44005757  1  -0.062192  0  -0.083506  -0.078917  0  3.985864  0
C  C156  1  0.51206097  0.74380833  0.88418884  1  0.034816  0  -0.023737  -0.042438  0  3.966184  0
C  C157  1  0.76795359  0.25624112  0.61580004  1  0.000193  0  -0.022936  -0.041836  0  3.966496  0
C  C158  1  0.48793940  0.25619303  0.11581226  1  0.034399  0  -0.023701  -0.042466  0  3.966144  0
C  C159  1  0.23204808  0.74375728  0.38419913  1  0.000183  0  -0.022944  -0.041852  0  3.966331  0
C  C160  1  0.43838865  0.76519671  0.83790285  1  -0.106817  0  -0.089418  -0.094869  0  3.977453  0
C  C161  1  0.67292485  0.23474789  0.66210699  1  -0.063529  0  -0.090086  -0.094608  0  3.978215  0
C  C162  1  0.56161080  0.23480465  0.16209779  1  -0.106285  0  -0.089468  -0.094931  0  3.977514  0
C  C163  1  0.32707682  0.76525052  0.33789219  1  -0.063541  0  -0.090107  -0.094623  0  3.978131  0
C  C164  1  0.38869246  0.84032840  0.84749151  1  -0.088666  0  -0.102767  -0.21022  0  4.015088  0
C  C165  1  0.54804945  0.15959183  0.65249552  1  0.001108  0  -0.101966  -0.209725  0  4.014707  0
C  C166  1  0.61130754  0.15967223  0.15251002  1  -0.08866  0  -0.102729  -0.210185  0  4.014928  0
C  C167  1  0.45195130  0.84040657  0.34750366  1  0.001131  0  -0.102016  -0.209783  0  4.014712  0
C  C168  1  0.56530647  0.66230384  0.87442277  1  1.571445  0  0.19364  0.563483  0  4.237646  0
C  C169  1  0.90279969  0.33769601  0.62556861  1  1.568531  0  0.193451  0.562625  0  4.238269  0
C  C170  1  0.43469649  0.33769899  0.12557655  1  1.571581  0  0.193692  0.563566  0  4.237558  0
C  C171  1  0.09720199  0.66230240  0.37443148  1  1.568736  0  0.193451  0.562653  0  4.238152  0
N  N172  1  0.83662920  0.59137802  0.83896939  1  -1.215686  0  -0.348903  -0.270764  0  3.593799  0
N  N173  1  0.24524010  0.40860447  0.66116264  1  -1.208124  0  -0.348456  -0.270777  0  3.591983  0
N  N174  1  0.16336951  0.40862187  0.16103121  1  -1.215633  0  -0.348895  -0.270754  0  3.593791  0
N  N175  1  0.75475878  0.59139763  0.33883803  1  -1.20794  0  -0.348485  -0.270783  0  3.592  0
N  N176  1  0.99869506  0.62928314  0.90794890  1  -1.255615  0  -0.219042  -0.018087  0  3.757227  0
N  N177  1  0.36924475  0.37057055  0.59214066  1  -1.251771  0  -0.218754  -0.018153  0  3.757331  0
N  N178  1  0.00130365  0.37071675  0.09205169  1  -1.255621  0  -0.219014  -0.018078  0  3.757139  0
N  N179  1  0.63075376  0.62943081  0.40785906  1  -1.251665  0  -0.218723  -0.018123  0  3.757249  0
N  N180  1  0.98100708  0.61264408  0.01294959  1  -1.212795  0  -0.313921  -0.396177  0  3.302402  0
N  N181  1  0.36825285  0.38732471  0.48713228  1  -1.229998  0  -0.313601  -0.395775  0  3.301764  0
N  N182  1  0.01899144  0.38735728  0.98705105  1  -1.212857  0  -0.313978  -0.396263  0  3.302528  0
N  N183  1  0.63174808  0.61267591  0.51286743  1  -1.23001  0  -0.313586  -0.395775  0  3.301841  0
N  N184  1  0.94713655  0.58800453  0.11693002  1  -1.248521  0  -0.219858  -0.020831  0  3.767391  0
N  N185  1  0.35915836  0.41210964  0.38314155  1  -1.26253  0  -0.219592  -0.020727  0  3.767172  0
N  N186  1  0.05286272  0.41199462  0.88307055  1  -1.248676  0  -0.219837  -0.020745  0  3.767307  0
N  N187  1  0.64084461  0.58788950  0.61685765  1  -1.262478  0  -0.219617  -0.020712  0  3.767256  0
N  N188  1  0.87373767  0.55079745  0.20982985  1  -1.237709  0  -0.350205  -0.279802  0  3.590666  0
N  N189  1  0.32267860  0.44905246  0.29021517  1  -1.240893  0  -0.350933  -0.280951  0  3.590314  0
N  N190  1  0.12626252  0.44920169  0.79017027  1  -1.23765  0  -0.350226  -0.279841  0  3.590501  0
N  N191  1  0.67732493  0.55094594  0.70978355  1  -1.240782  0  -0.351012  -0.28113  0  3.590382  0
O  O192  1  0.70132386  0.36609953  0.78995627  1  -1.191876  0  -0.323619  -0.562126  0  2.191917  0
O  O193  1  0.33478272  0.63388946  0.71001279  1  -1.188883  0  -0.323703  -0.562081  0  2.192587  0
O  O194  1  0.29867614  0.63390109  0.21004435  1  -1.191873  0  -0.323627  -0.562137  0  2.19191  0
O  O195  1  0.66521450  0.36611116  0.28998737  1  -1.188512  0  -0.323752  -0.562182  0  2.192586  0
O  O196  1  0.52631528  0.40285693  0.82200379  1  -1.169201  0  -0.334557  -0.549865  0  2.288197  0
O  O197  1  0.12306802  0.59708736  0.67787221  1  -1.164328  0  -0.334231  -0.550235  0  2.28637  0
O  O198  1  0.47368435  0.59714295  0.17799634  1  -1.169211  0  -0.334569  -0.5499  0  2.288219  0
O  O199  1  0.87692939  0.40291178  0.32212744  1  -1.1643  0  -0.334255  -0.550282  0  2.286428  0
O  O200  1  0.36137971  0.96763426  0.91512936  1  -1.093656  0  -0.160173  -0.224669  0  2.542952  0
O  O201  1  0.39344171  0.03231852  0.58486166  1  -1.101476  0  -0.160007  -0.226172  0  2.542869  0
O  O202  1  0.63862159  0.03236710  0.08487129  1  -1.09367  0  -0.160145  -0.224626  0  2.542912  0
O  O203  1  0.60655699  0.96768136  0.41513711  1  -1.101978  0  -0.15998  -0.226143  0  2.542792  0
O  O204  1  0.55754138  0.62768204  0.81792585  1  -1.174231  0  -0.341779  -0.561117  0  2.322215  0
O  O205  1  0.92978190  0.37218547  0.68208465  1  -1.178429  0  -0.341802  -0.560607  0  2.32153  0
O  O206  1  0.44245992  0.37231932  0.18207342  1  -1.174396  0  -0.341814  -0.561135  0  2.322202  0
O  O207  1  0.07021829  0.62781367  0.31791455  1  -1.178452  0  -0.34183  -0.560666  0  2.32149  0
O  O208  1  0.61195777  0.63349402  0.91844587  1  -1.176888  0  -0.338931  -0.558764  0  2.085008  0
O  O209  1  0.97828418  0.36657703  0.58154118  1  -1.177667  0  -0.338844  -0.558355  0  2.085194  0
O  O210  1  0.38804742  0.36650955  0.08155393  1  -1.17692  0  -0.338937  -0.55879  0  2.084951  0
O  O211  1  0.02171786  0.63342211  0.41845802  1  -1.177833  0  -0.338818  -0.558327  0  2.085187  0
