# generated using pymatgen
data_HgH3C4(BrN)2
_symmetry_space_group_name_H-M   'P 1'
_cell_length_a   4.15248753
_cell_length_b   9.39497381
_cell_length_c   19.50146251
_cell_angle_alpha   89.99973659
_cell_angle_beta   90.00000452
_cell_angle_gamma   100.57169122
_symmetry_Int_Tables_number   1
_chemical_formula_structural   HgH3C4(BrN)2
_chemical_formula_sum   'Hg4 H12 C16 Br8 N8'
_cell_volume   747.88728435
_cell_formula_units_Z   4
loop_
 _symmetry_equiv_pos_site_id
 _symmetry_equiv_pos_as_xyz
  1  'x, y, z'
loop_
 _atom_site_type_symbol
 _atom_site_label
 _atom_site_symmetry_multiplicity
 _atom_site_fract_x
 _atom_site_fract_y
 _atom_site_fract_z
 _atom_site_occupancy
 _atom_site_hle17_bader_spin_density
 _atom_site_hle17_ddec_charge
 _atom_site_hle17_ddec_spin_density
 _atom_site_hle17_ddec_sum_bond_order
 _atom_site_hle17_magmom
 _atom_site_hse06_10hf_bader_spin_density
 _atom_site_hse06_10hf_ddec_charge
 _atom_site_hse06_10hf_ddec_spin_density
 _atom_site_hse06_10hf_ddec_sum_bond_order
 _atom_site_hse06_10hf_magmom
 _atom_site_hse06_bader_spin_density
 _atom_site_hse06_ddec_charge
 _atom_site_hse06_ddec_spin_density
 _atom_site_hse06_ddec_sum_bond_order
 _atom_site_hse06_magmom
 _atom_site_pbe_bader_spin_density
 _atom_site_pbe_cm5_charge
 _atom_site_pbe_ddec_charge
 _atom_site_pbe_ddec_spin_density
 _atom_site_pbe_ddec_sum_bond_order
 _atom_site_pbe_magmom
Hg  Hg0  1  0.75701541  0.72885126  0.86676037  1  0  0.649197  0  2.111289  0  0  0.501421  0  2.613261  0  0  0.553137  0  2.579572  0  0  0.425836  0.46613  0  2.636074  0
Hg  Hg1  1  0.74297043  0.77114177  0.36676551  1  0  0.649201  0  2.111345  0  0  0.501427  0  2.613319  0  0  0.553142  0  2.579633  0  0  0.425835  0.466134  0  2.636129  0
Hg  Hg2  1  0.24289143  0.27114032  0.13323382  1  0  0.649187  0  2.111201  0  0  0.501422  0  2.613164  0  0  0.553137  0  2.579473  0  0  0.425826  0.46613  0  2.63598  0
Hg  Hg3  1  0.25707043  0.22885842  0.63323534  1  0  0.649232  0  2.111197  0  0  0.501456  0  2.61319  0  0  0.553169  0  2.579499  0  0  0.425827  0.466163  0  2.636007  0
H  H4  1  0.10520828  0.86096940  0.02445362  1  0  0.078096  0  0.974134  0  0  0.080663  0  1.051466  0  0  0.084133  0  1.047081  0  0  0.094459  0.078065  0  1.054736  0
H  H5  1  0.39482786  0.63901892  0.52445176  1  0  0.078081  0  0.974175  0  0  0.080658  0  1.051469  0  0  0.084127  0  1.047084  0  0  0.094395  0.078054  0  1.054748  0
H  H6  1  0.89476608  0.13901181  0.97554877  1  0  0.078031  0  0.97425  0  0  0.08054  0  1.051619  0  0  0.08401  0  1.047233  0  0  0.094416  0.077944  0  1.054884  0
H  H7  1  0.60522615  0.36099420  0.47554601  1  0  0.077986  0  0.974204  0  0  0.080546  0  1.051501  0  0  0.084016  0  1.047116  0  0  0.094407  0.077946  0  1.054772  0
H  H8  1  0.61958306  0.60274380  0.19111220  1  0  0.08336  0  0.953171  0  0  0.087698  0  1.024091  0  0  0.090653  0  1.020036  0  0  0.102537  0.085425  0  1.027197  0
H  H9  1  0.88039631  0.89726625  0.69111028  1  0  0.083439  0  0.953078  0  0  0.087757  0  1.02402  0  0  0.090714  0  1.019964  0  0  0.102535  0.085484  0  1.027127  0
H  H10  1  0.38038137  0.39724728  0.80888968  1  0  0.083375  0  0.953176  0  0  0.087702  0  1.024079  0  0  0.090657  0  1.020026  0  0  0.102545  0.085431  0  1.027186  0
H  H11  1  0.11961079  0.10275489  0.30888903  1  0  0.083377  0  0.953164  0  0  0.087698  0  1.024091  0  0  0.090654  0  1.020032  0  0  0.102533  0.085427  0  1.0272  0
H  H12  1  0.00697010  0.83035566  0.15240097  1  0  0.126769  0  0.958767  0  0  0.131195  0  1.025766  0  0  0.135417  0  1.023734  0  0  0.097849  0.12812  0  1.027534  0
H  H13  1  0.49305829  0.66964233  0.65239957  1  0  0.126834  0  0.958832  0  0  0.131252  0  1.025826  0  0  0.135467  0  1.023801  0  0  0.097861  0.128176  0  1.027595  0
H  H14  1  0.99300673  0.16963097  0.84760039  1  0  0.126713  0  0.95876  0  0  0.131243  0  1.025655  0  0  0.135443  0  1.023641  0  0  0.097847  0.128161  0  1.02744  0
H  H15  1  0.50697744  0.33036769  0.34759717  1  0  0.126718  0  0.958828  0  0  0.13126  0  1.025699  0  0  0.13545  0  1.023694  0  0  0.097876  0.128178  0  1.027482  0
C  C16  1  0.58792520  0.55355458  0.02502471  1  0  0.309963  0  3.739173  0  0  0.287984  0  3.994351  0  0  0.301337  0  4.009688  0  0  0.245826  0.279091  0  3.98382  0
C  C17  1  0.91205833  0.94644839  0.52502320  1  0  0.310158  0  3.738974  0  0  0.288039  0  3.994339  0  0  0.301394  0  4.009673  0  0  0.245872  0.27915  0  3.983808  0
C  C18  1  0.41203534  0.44643328  0.97497819  1  0  0.31008  0  3.7393  0  0  0.288157  0  3.994411  0  0  0.301512  0  4.009747  0  0  0.245975  0.279268  0  3.983879  0
C  C19  1  0.08797557  0.05356817  0.47497612  1  0  0.310126  0  3.739184  0  0  0.28818  0  3.994331  0  0  0.301532  0  4.00967  0  0  0.245944  0.279289  0  3.983801  0
C  C20  1  0.93963219  0.76751438  0.04558705  1  0  0.181669  0  3.660591  0  0  0.147308  0  3.917355  0  0  0.157476  0  3.932605  0  0  0.056799  0.140759  0  3.906985  0
C  C21  1  0.56038324  0.73247941  0.54558598  1  0  0.18164  0  3.66078  0  0  0.147305  0  3.917477  0  0  0.157473  0  3.93273  0  0  0.056833  0.14076  0  3.907102  0
C  C22  1  0.06033596  0.23246906  0.95441534  1  0  0.181629  0  3.660745  0  0  0.147423  0  3.917352  0  0  0.157591  0  3.932597  0  0  0.056818  0.140876  0  3.906984  0
C  C23  1  0.43966167  0.26753488  0.45441231  1  0  0.181898  0  3.660529  0  0  0.147681  0  3.917024  0  0  0.157851  0  3.932265  0  0  0.057021  0.141136  0  3.906653  0
C  C24  1  0.67720219  0.62509037  0.13721007  1  0  0.190555  0  3.666308  0  0  0.157205  0  3.920155  0  0  0.167986  0  3.935445  0  0  0.065671  0.150222  0  3.909767  0
C  C25  1  0.82277930  0.87491367  0.63720870  1  0  0.190505  0  3.666538  0  0  0.157171  0  3.920335  0  0  0.167948  0  3.935627  0  0  0.065725  0.150188  0  3.909954  0
C  C26  1  0.32276695  0.37489523  0.86279181  1  0  0.190612  0  3.666411  0  0  0.157273  0  3.920258  0  0  0.168052  0  3.935545  0  0  0.065731  0.150291  0  3.909873  0
C  C27  1  0.17723880  0.12510520  0.36279061  1  0  0.190633  0  3.666467  0  0  0.157278  0  3.920312  0  0  0.168063  0  3.935591  0  0  0.065741  0.150295  0  3.909927  0
C  C28  1  0.88786806  0.75013714  0.11583154  1  0  -0.140031  0  3.653997  0  0  -0.14887  0  3.900834  0  0  -0.15901  0  3.92054  0  0  -0.077062  -0.142565  0  3.88794  0
C  C29  1  0.61214987  0.74985702  0.61582993  1  0  -0.140089  0  3.654389  0  0  -0.148933  0  3.901169  0  0  -0.159067  0  3.920876  0  0  -0.077083  -0.14263  0  3.888279  0
C  C30  1  0.11210870  0.24984405  0.88417136  1  0  -0.139838  0  3.654078  0  0  -0.148821  0  3.90086  0  0  -0.158937  0  3.920584  0  0  -0.077024  -0.142518  0  3.887966  0
C  C31  1  0.38787923  0.25015958  0.38416887  1  0  -0.13994  0  3.654097  0  0  -0.148947  0  3.900875  0  0  -0.159055  0  3.920602  0  0  -0.07711  -0.142642  0  3.887977  0
Br  Br32  1  0.42834886  0.92147969  0.90308562  1  0  -0.377479  0  1.197468  0  0  -0.316683  0  1.54025  0  0  -0.339332  0  1.520342  0  0  -0.193075  -0.300815  0  1.554292  0
Br  Br33  1  0.07167044  0.57851480  0.40308502  1  0  -0.377446  0  1.197487  0  0  -0.316649  0  1.540291  0  0  -0.339298  0  1.520384  0  0  -0.19305  -0.300778  0  1.554331  0
Br  Br34  1  0.57154782  0.07850546  0.09691062  1  0  -0.37746  0  1.197325  0  0  -0.316651  0  1.540067  0  0  -0.339298  0  1.520162  0  0  -0.193075  -0.300784  0  1.554111  0
Br  Br35  1  0.92845181  0.42150534  0.59691788  1  0  -0.377462  0  1.197338  0  0  -0.316672  0  1.540128  0  0  -0.339317  0  1.520223  0  0  -0.193067  -0.300804  0  1.554172  0
Br  Br36  1  0.00167523  0.61679885  0.76648387  1  0  -0.400523  0  1.114807  0  0  -0.346004  0  1.437375  0  0  -0.367674  0  1.418709  0  0  -0.211874  -0.330947  0  1.450324  0
Br  Br37  1  0.49837800  0.88320105  0.26648161  1  0  -0.400552  0  1.11478  0  0  -0.346064  0  1.437384  0  0  -0.367735  0  1.418719  0  0  -0.211895  -0.331007  0  1.450332  0
Br  Br38  1  0.99830904  0.38320401  0.23351800  1  0  -0.400516  0  1.114803  0  0  -0.346011  0  1.437376  0  0  -0.367683  0  1.4187  0  0  -0.211846  -0.330949  0  1.450323  0
Br  Br39  1  0.50167866  0.11679684  0.73351667  1  0  -0.400542  0  1.114782  0  0  -0.346044  0  1.437375  0  0  -0.367715  0  1.418703  0  0  -0.211871  -0.330986  0  1.450325  0
N  N40  1  0.78880864  0.67029458  0.00009825  1  0  -0.351673  0  3.144439  0  0  -0.293628  0  3.408549  0  0  -0.314245  0  3.426388  0  0  -0.303814  -0.279754  0  3.396167  0
N  N41  1  0.71120556  0.82969641  0.50009698  1  0  -0.351725  0  3.144486  0  0  -0.29365  0  3.408649  0  0  -0.314269  0  3.426487  0  0  -0.303839  -0.279775  0  3.396263  0
N  N42  1  0.21115091  0.32969111  0.99990260  1  0  -0.351861  0  3.144678  0  0  -0.293878  0  3.408711  0  0  -0.314496  0  3.42655  0  0  -0.303967  -0.280005  0  3.396331  0
N  N43  1  0.28883546  0.17031465  0.49990079  1  0  -0.352018  0  3.144527  0  0  -0.294008  0  3.408579  0  0  -0.314626  0  3.426416  0  0  -0.304049  -0.280137  0  3.396201  0
N  N44  1  0.53152216  0.52664220  0.09187408  1  0  -0.349895  0  3.166754  0  0  -0.288307  0  3.42768  0  0  -0.309894  0  3.446438  0  0  -0.303191  -0.273751  0  3.414689  0
N  N45  1  0.96846289  0.97335900  0.59187354  1  0  -0.350028  0  3.166981  0  0  -0.28837  0  3.427918  0  0  -0.309958  0  3.446675  0  0  -0.303216  -0.273807  0  3.414903  0
N  N46  1  0.46843498  0.47334350  0.90812728  1  0  -0.349969  0  3.166902  0  0  -0.288369  0  3.427771  0  0  -0.309959  0  3.446535  0  0  -0.30321  -0.273815  0  3.414782  0
N  N47  1  0.03155662  0.02665769  0.40812680  1  0  -0.350018  0  3.166946  0  0  -0.288382  0  3.427789  0  0  -0.309972  0  3.446556  0  0  -0.303222  -0.273827  0  3.4148  0
