# generated using pymatgen
data_MnH22C38S2(NO2)4
_symmetry_space_group_name_H-M   'P 1'
_cell_length_a   8.76570500
_cell_length_b   9.40896136
_cell_length_c   10.71811557
_cell_angle_alpha   105.85502044
_cell_angle_beta   104.01335230
_cell_angle_gamma   92.81906158
_symmetry_Int_Tables_number   1
_chemical_formula_structural   MnH22C38S2(NO2)4
_chemical_formula_sum   'Mn1 H22 C38 S2 N4 O8'
_cell_volume   818.72751810
_cell_formula_units_Z   1
loop_
 _symmetry_equiv_pos_site_id
 _symmetry_equiv_pos_as_xyz
  1  'x, y, z'
loop_
 _atom_site_type_symbol
 _atom_site_label
 _atom_site_symmetry_multiplicity
 _atom_site_fract_x
 _atom_site_fract_y
 _atom_site_fract_z
 _atom_site_occupancy
 _atom_site_pbe_cm5_charge
 _atom_site_pbe_ddec_charge
 _atom_site_pbe_ddec_spin_density
 _atom_site_pbe_ddec_sum_bond_order
 _atom_site_pbe_magmom
Mn  Mn0  1  0.50000095  0.49999853  0.49999892  1  0.615293  0.820958  4.681133  2.386912  4.463
H  H1  1  0.57611537  0.06352130  0.14755638  1  0.105774  0.105282  3.7e-05  1.043852  0.0
H  H2  1  0.42387876  0.93647911  0.85244265  1  0.105784  0.105297  3.7e-05  1.043817  0.0
H  H3  1  0.77229532  0.07157202  0.01411413  1  0.110907  0.123529  0.000144  0.994362  0.0
H  H4  1  0.22770444  0.92842617  0.98588917  1  0.110922  0.123543  0.000144  0.994459  0.0
H  H5  1  0.79791063  0.29067096  0.92675494  1  0.113568  0.117053  1.7e-05  0.996049  0.0
H  H6  1  0.20208942  0.70932945  0.07324895  1  0.113554  0.11698  1.7e-05  0.996081  0.0
H  H7  1  0.46543141  0.82866113  0.43498001  1  0.116582  0.080433  0.000784  1.015407  0.001
H  H8  1  0.53456978  0.17133928  0.56502129  1  0.116574  0.080433  0.000784  1.015415  0.001
H  H9  1  0.56865484  0.97000837  0.30439098  1  0.107052  0.130216  0.000199  1.058933  0.0
H  H10  1  0.43134666  0.02999427  0.69561185  1  0.107088  0.130222  0.000199  1.058921  0.0
H  H11  1  0.79195306  0.87719528  0.20271975  1  0.115031  0.121436  2.4e-05  0.973498  0.0
H  H12  1  0.20804829  0.12280624  0.79728279  1  0.115052  0.121488  2.4e-05  0.973438  0.0
H  H13  1  0.97871544  0.68817222  0.17017283  1  0.112159  0.121175  0.000137  0.986666  0.0
H  H14  1  0.02129283  0.31183710  0.82983382  1  0.112161  0.121107  0.000137  0.986741  0.0
H  H15  1  0.07851486  0.45673528  0.20713167  1  0.115022  0.140609  -0.000116  1.026543  0.0
H  H16  1  0.92149028  0.54326847  0.79286932  1  0.115046  0.14064  -0.000116  1.026466  0.0
H  H17  1  0.05993524  0.24397301  0.29825503  1  0.114413  0.126542  -0.000186  1.011648  0.0
H  H18  1  0.94006838  0.75602850  0.70174140  1  0.114409  0.126566  -0.000186  1.011634  0.0
H  H19  1  0.93511464  0.11773986  0.43559732  1  0.107116  0.111391  0.000379  0.996595  0.0
H  H20  1  0.06488987  0.88225942  0.56439875  1  0.107123  0.111337  0.000379  0.996631  0.0
H  H21  1  0.71687931  0.22766032  0.52366020  1  0.116977  0.073866  0.000968  1.018143  0.001
H  H22  1  0.28312241  0.77233563  0.47633548  1  0.116977  0.073882  0.000968  1.018076  0.001
C  C23  1  0.36552477  0.48279440  0.05427529  1  0.153553  0.331499  0.000811  4.018704  0.001
C  C24  1  0.63447041  0.51720490  0.94572554  1  0.15362  0.331493  0.000811  4.01877  0.001
C  C25  1  0.48234815  0.37421517  0.05676808  1  -0.008951  -0.045471  0.000432  3.947913  0.0
C  C26  1  0.51764703  0.62578413  0.94323275  1  -0.00894  -0.045417  0.000432  3.947863  0.0
C  C27  1  0.47568886  0.25653220  0.11500413  1  -0.005082  -0.09027  0.001053  3.860199  0.001
C  C28  1  0.52430618  0.74346599  0.88499735  1  -0.005142  -0.090411  0.001053  3.860454  0.001
C  C29  1  0.58251831  0.15178301  0.10091463  1  -0.080711  -0.091255  0.000412  3.991511  0.0
C  C30  1  0.41747921  0.84821629  0.89908571  1  -0.080719  -0.091274  0.000412  3.991629  0.0
C  C31  1  0.69459040  0.15831726  0.02891592  1  -0.072168  -0.047439  0.000355  3.94294  0.0
C  C32  1  0.30540979  0.84168427  0.97108733  1  -0.072161  -0.047437  0.000355  3.943003  0.0
C  C33  1  0.70710232  0.27748573  0.97769868  1  -0.068115  -0.070298  0.00035  3.935609  0.0
C  C34  1  0.29289655  0.72251468  0.02230406  1  -0.068078  -0.070107  0.00035  3.935538  0.0
C  C35  1  0.60395626  0.38609119  0.99316059  1  -0.012559  -0.041568  0.000227  3.972535  0.0
C  C36  1  0.39603743  0.61390588  0.00683756  1  -0.012557  -0.041716  0.000227  3.972634  0.0
C  C37  1  0.72705823  0.60951275  0.35139550  1  0.119123  0.116174  0.003004  3.96502  0.003
C  C38  1  0.27294410  0.39048766  0.64860323  1  0.119067  0.116154  0.003003  3.965056  0.003
C  C39  1  0.55761048  0.78728502  0.38755645  1  0.063424  0.124051  0.004656  3.926515  0.004
C  C40  1  0.44238909  0.21271205  0.61244281  1  0.063404  0.123978  0.004656  3.926607  0.004
C  C41  1  0.62012327  0.86975835  0.31615287  1  -0.089571  -0.145543  0.000525  3.980887  0.001
C  C42  1  0.37987690  0.13024318  0.68384851  1  -0.089591  -0.145508  0.000525  3.980841  0.001
C  C43  1  0.74132789  0.81850170  0.26110604  1  -0.064962  -0.082123  0.002893  3.943496  0.002
C  C44  1  0.25867495  0.18150206  0.73889825  1  -0.065028  -0.08219  0.002893  3.943382  0.002
C  C45  1  0.80025824  0.68651600  0.27934304  1  -0.0051  0.034799  0.000288  4.03242  0.0
C  C46  1  0.19974426  0.31348552  0.72065691  1  -0.005067  0.034774  0.000288  4.032484  0.0
C  C47  1  0.92769809  0.62886399  0.22772160  1  -0.085067  -0.125672  -0.000116  3.990006  0.0
C  C48  1  0.07230602  0.37114087  0.77227946  1  -0.08504  -0.125578  -0.000116  3.990089  0.0
C  C49  1  0.98168620  0.50075199  0.24678638  1  -0.07547  -0.104712  4e-05  3.929035  0.0
C  C50  1  0.01831908  0.49925286  0.75321491  1  -0.07552  -0.104789  4e-05  3.929089  0.0
C  C51  1  0.91177834  0.42137738  0.31954998  1  0.002137  0.046455  -0.000173  3.987877  0.0
C  C52  1  0.08822783  0.57862525  0.68045094  1  0.002097  0.046445  -0.000173  3.987875  0.0
C  C53  1  0.96536393  0.28864671  0.34103027  1  -0.054963  -0.052624  0.00381  3.883114  0.003
C  C54  1  0.03463587  0.71135258  0.65896491  1  -0.054986  -0.052726  0.00381  3.883093  0.003
C  C55  1  0.89575925  0.21890244  0.41473617  1  -0.084274  -0.136872  5.8e-05  4.00092  0.0
C  C56  1  0.10424129  0.78109350  0.58525834  1  -0.084249  -0.136773  5.8e-05  4.000926  0.0
C  C57  1  0.77165948  0.28042889  0.46403864  1  0.063419  0.116772  0.006439  3.963615  0.005
C  C58  1  0.22834239  0.71956817  0.53595733  1  0.063483  0.116866  0.006438  3.963436  0.005
C  C59  1  0.78431601  0.47440159  0.37200736  1  0.12135  0.117147  0.003794  3.969949  0.003
C  C60  1  0.21568631  0.52559882  0.62799043  1  0.121439  0.11727  0.003794  3.96979  0.003
S  S61  1  0.34191277  0.23022501  0.21441927  1  0.510157  1.161901  0.009464  6.192825  0.006
S  S62  1  0.65807932  0.76976873  0.78557964  1  0.510305  1.162296  0.009463  6.19268  0.006
N  N63  1  0.60613650  0.65989713  0.40344333  1  -0.301509  -0.255751  0.033179  3.450211  0.019
N  N64  1  0.39386438  0.34010105  0.59655552  1  -0.301474  -0.255707  0.033179  3.450304  0.019
N  N65  1  0.71502574  0.40279754  0.44253701  1  -0.307623  -0.26125  0.032598  3.471801  0.017
N  N66  1  0.28497612  0.59719952  0.55745802  1  -0.307705  -0.261411  0.032602  3.471836  0.017
O  O67  1  0.34485411  0.38040203  0.30897507  1  -0.338498  -0.608363  0.046416  2.416237  0.03
O  O68  1  0.65514157  0.61959171  0.69102919  1  -0.338529  -0.608418  0.046414  2.416212  0.03
O  O69  1  0.18622308  0.17147270  0.12205788  1  -0.341417  -0.574759  0.004921  2.133269  0.005
O  O70  1  0.81377040  0.82853216  0.87793743  1  -0.341504  -0.574917  0.004921  2.133233  0.005
O  O71  1  0.41310114  0.12865227  0.28735733  1  -0.350054  -0.618842  0.001285  2.225195  0.002
O  O72  1  0.58688254  0.87133144  0.71263385  1  -0.35009  -0.618966  0.001285  2.225139  0.002
O  O73  1  0.23910870  0.46316249  0.08209043  1  -0.229328  -0.357939  0.000325  2.208906  0.001
O  O74  1  0.76088948  0.53684128  0.91791671  1  -0.229362  -0.357964  0.000324  2.209008  0.001
