# generated using pymatgen
data_HgH2CN5Cl
_symmetry_space_group_name_H-M   'P 1'
_cell_length_a   6.21131691
_cell_length_b   9.04705121
_cell_length_c   9.04991102
_cell_angle_alpha   89.27857933
_cell_angle_beta   90.00107761
_cell_angle_gamma   90.00023480
_symmetry_Int_Tables_number   1
_chemical_formula_structural   HgH2CN5Cl
_chemical_formula_sum   'Hg4 H8 C4 N20 Cl4'
_cell_volume   508.51131252
_cell_formula_units_Z   4
loop_
 _symmetry_equiv_pos_site_id
 _symmetry_equiv_pos_as_xyz
  1  'x, y, z'
loop_
 _atom_site_type_symbol
 _atom_site_label
 _atom_site_symmetry_multiplicity
 _atom_site_fract_x
 _atom_site_fract_y
 _atom_site_fract_z
 _atom_site_occupancy
 _atom_site_pbe_bader_spin_density
 _atom_site_pbe_cm5_charge
 _atom_site_pbe_ddec_charge
 _atom_site_pbe_ddec_spin_density
 _atom_site_pbe_ddec_sum_bond_order
 _atom_site_pbe_magmom
Hg  Hg0  1  0.75010019  0.14052249  0.64152679  1  0  0.639127  0.675952  0  2.398842  0
Hg  Hg1  1  0.25010517  0.35947833  0.85846837  1  0  0.639146  0.675991  0  2.398793  0
Hg  Hg2  1  0.24990327  0.85947368  0.35846955  1  0  0.639124  0.675908  0  2.398878  0
Hg  Hg3  1  0.74992244  0.64052447  0.14152813  1  0  0.639153  0.675979  0  2.398724  0
H  H4  1  0.74382149  0.00356627  0.14310345  1  0  0.28422  0.310252  0  0.999076  0
H  H5  1  0.24382885  0.49645021  0.35689347  1  0  0.284208  0.310339  0  0.998938  0
H  H6  1  0.25617392  0.99644340  0.85688658  1  0  0.28416  0.310256  0  0.999069  0
H  H7  1  0.75617139  0.50357014  0.64310677  1  0  0.284233  0.310322  0  0.998962  0
H  H8  1  0.74349772  0.14215140  0.00482270  1  0  0.284074  0.311157  0  0.997932  0
H  H9  1  0.24350379  0.35784969  0.49520037  1  0  0.284057  0.311198  0  0.997788  0
H  H10  1  0.25649930  0.85783777  0.99518343  1  0  0.284034  0.311202  0  0.997819  0
H  H11  1  0.75649805  0.64215651  0.50482386  1  0  0.284031  0.311095  0  0.997963  0
C  C12  1  0.75566333  0.92919418  0.93041202  1  0  0.336193  0.500923  0  4.122798  0
C  C13  1  0.25569186  0.57080774  0.56959428  1  0  0.336227  0.501115  0  4.123031  0
C  C14  1  0.24430954  0.07080088  0.06958429  1  0  0.33621  0.500999  0  4.122965  0
C  C15  1  0.74432931  0.42919677  0.43041553  1  0  0.336324  0.501146  0  4.122682  0
N  N16  1  0.74639492  0.03253752  0.03362160  1  0  -0.580078  -0.630267  0  3.386503  0
N  N17  1  0.24638154  0.46746808  0.46638187  1  0  -0.580119  -0.630518  0  3.386352  0
N  N18  1  0.25361015  0.96746172  0.96638146  1  0  -0.580007  -0.630413  0  3.386532  0
N  N19  1  0.75360260  0.53254208  0.53362476  1  0  -0.580124  -0.630422  0  3.386408  0
N  N20  1  0.76271473  0.78040555  0.95241382  1  0  -0.242216  -0.260664  0  3.485821  0
N  N21  1  0.26270027  0.71960324  0.54758760  1  0  -0.242206  -0.260777  0  3.485756  0
N  N22  1  0.23730000  0.21959602  0.04758597  1  0  -0.24225  -0.260839  0  3.485906  0
N  N23  1  0.73728869  0.28041130  0.45242024  1  0  -0.242316  -0.260817  0  3.485954  0
N  N24  1  0.77588279  0.71528317  0.81693653  1  0  -0.087174  -0.046586  0  3.287283  0
N  N25  1  0.27587768  0.78469754  0.68307617  1  0  -0.087216  -0.046468  0  3.28862  0
N  N26  1  0.22413356  0.28469365  0.18307483  1  0  -0.087299  -0.046659  0  3.288688  0
N  N27  1  0.72411934  0.21528341  0.31694303  1  0  -0.087126  -0.046635  0  3.286926  0
N  N28  1  0.77575508  0.81583864  0.71647115  1  0  -0.08782  -0.04918  0  3.290086  0
N  N29  1  0.27575263  0.68417240  0.78349804  1  0  -0.087793  -0.049152  0  3.291413  0
N  N30  1  0.22425321  0.18416201  0.28349324  1  0  -0.087729  -0.048962  0  3.29146  0
N  N31  1  0.72424600  0.31584806  0.21646903  1  0  -0.087807  -0.049052  0  3.289621  0
N  N32  1  0.76247574  0.95128623  0.78166305  1  0  -0.241654  -0.259858  0  3.484811  0
N  N33  1  0.26246272  0.54870506  0.71833241  1  0  -0.241671  -0.259997  0  3.484937  0
N  N34  1  0.23753416  0.04870671  0.21833101  1  0  -0.24163  -0.25992  0  3.48496  0
N  N35  1  0.73752947  0.45128771  0.28166606  1  0  -0.241677  -0.25991  0  3.484861  0
Cl  Cl36  1  0.24923530  0.14875899  0.64767885  1  0  -0.304632  -0.551657  0  1.364378  0
Cl  Cl37  1  0.74923613  0.35124492  0.85231853  1  0  -0.304661  -0.55171  0  1.364371  0
Cl  Cl38  1  0.75075367  0.85124822  0.35231775  1  0  -0.304666  -0.551687  0  1.364359  0
Cl  Cl39  1  0.25074962  0.64875199  0.14768778  1  0  -0.304652  -0.551684  0  1.364411  0
