# generated using pymatgen
data_CuH3C5N2
_symmetry_space_group_name_H-M   'P 1'
_cell_length_a   16.24405235
_cell_length_b   21.82221688
_cell_length_c   22.81927556
_cell_angle_alpha   89.93018995
_cell_angle_beta   89.27303212
_cell_angle_gamma   89.96561300
_symmetry_Int_Tables_number   1
_chemical_formula_structural   CuH3C5N2
_chemical_formula_sum   'Cu12 H36 C60 N24'
_cell_volume   8088.34646122
_cell_formula_units_Z   12
loop_
 _symmetry_equiv_pos_site_id
 _symmetry_equiv_pos_as_xyz
  1  'x, y, z'
loop_
 _atom_site_type_symbol
 _atom_site_label
 _atom_site_symmetry_multiplicity
 _atom_site_fract_x
 _atom_site_fract_y
 _atom_site_fract_z
 _atom_site_occupancy
 _atom_site_pbe_bader_charge
 _atom_site_pbe_bader_spin_density
 _atom_site_pbe_cm5_charge
 _atom_site_pbe_ddec_charge
 _atom_site_pbe_ddec_spin_density
 _atom_site_pbe_ddec_sum_bond_order
 _atom_site_pbe_magmom
Cu  Cu0  1  0.76607749  0.10980215  0.20390058  1  0.537959  0  0.485203  0.203178  0  2.143597  0
Cu  Cu1  1  0.79244596  0.13539739  0.07109998  1  0.54504  0  0.480736  0.203191  0  2.110052  0
Cu  Cu2  1  0.86107113  0.22828190  0.16874649  1  0.541131  0  0.481814  0.205922  0  2.109532  0
Cu  Cu3  1  0.23576453  0.38727947  0.70085483  1  0.538321  0  0.486946  0.204517  0  2.150519  0
Cu  Cu4  1  0.21134537  0.36297976  0.56795894  1  0.545638  0  0.480614  0.203136  0  2.106492  0
Cu  Cu5  1  0.13654724  0.27173485  0.66700726  1  0.539449  0  0.48165  0.206076  0  2.109851  0
Cu  Cu6  1  0.26567974  0.88824545  0.29841801  1  0.536558  0  0.485744  0.204422  0  2.14492  0
Cu  Cu7  1  0.29058345  0.86610337  0.43238474  1  0.544279  0  0.480397  0.20355  0  2.103539  0
Cu  Cu8  1  0.36412355  0.77345525  0.33480519  1  0.538572  0  0.481548  0.204093  0  2.115316  0
Cu  Cu9  1  0.73128410  0.60859958  0.79711614  1  0.537849  0  0.486357  0.202669  0  2.152334  0
Cu  Cu10  1  0.71032304  0.63750728  0.92859313  1  0.543357  0  0.481079  0.202969  0  2.114469  0
Cu  Cu11  1  0.63824633  0.72917323  0.82970227  1  0.542082  0  0.481895  0.20704  0  2.101836  0
H  H12  1  0.33306654  0.59947891  0.51911020  1  0.058683  0  0.096786  0.10203  0  1.013466  0
H  H13  1  0.50565125  0.73041817  0.58671722  1  0.06232  0  0.097324  0.103777  0  1.009674  0
H  H14  1  0.48342052  0.55231330  0.66659483  1  0.05954  0  0.095992  0.097832  0  1.02119  0
H  H15  1  0.66704836  0.90261519  0.01696521  1  0.040657  0  0.096805  0.101373  0  1.013546  0
H  H16  1  0.49103223  0.77090118  0.08201180  1  0.060116  0  0.097553  0.104748  0  1.009835  0
H  H17  1  0.51972485  0.94339731  0.17040578  1  0.051023  0  0.096395  0.099628  0  1.019401  0
H  H18  1  0.83234606  0.40203769  0.98227351  1  0.050524  0  0.096786  0.101378  0  1.01355  0
H  H19  1  0.00879938  0.27096277  0.91654330  1  0.054889  0  0.097307  0.103713  0  1.009504  0
H  H20  1  0.98330464  0.44587862  0.83141324  1  0.070122  0  0.096257  0.098674  0  1.018777  0
H  H21  1  0.01765445  0.05527544  0.33096792  1  0.04188  0  0.096265  0.098957  0  1.019276  0
H  H22  1  0.98907143  0.23008569  0.41595416  1  0.06274  0  0.097467  0.104689  0  1.009622  0
H  H23  1  0.16479939  0.09968909  0.48081069  1  0.063374  0  0.096704  0.101312  0  1.014449  0
H  H24  1  0.63117214  0.00504212  0.20082233  1  0.074415  0  0.120375  0.111701  0  0.992421  0
H  H25  1  0.70062210  0.01695938  0.01721987  1  0.060555  0  0.1192  0.110592  0  0.992409  0
H  H26  1  0.97363421  0.24815978  0.28143337  1  0.078486  0  0.119223  0.112306  0  0.990767  0
H  H27  1  0.85112751  0.07715413  0.32298383  1  0.07141  0  0.120329  0.113949  0  0.98856  0
H  H28  1  0.86267444  0.20125706  0.95720288  1  0.088782  0  0.11886  0.111787  0  0.991658  0
H  H29  1  0.90176851  0.34286785  0.08649999  1  0.097486  0  0.119103  0.111902  0  0.991208  0
H  H30  1  0.36942907  0.49146214  0.69794932  1  0.075467  0  0.11969  0.110926  0  0.992773  0
H  H31  1  0.30693406  0.48144840  0.51421292  1  0.122103  0  0.119338  0.110833  0  0.990861  0
H  H32  1  0.02330181  0.25296754  0.78172704  1  0.094806  0  0.119242  0.112528  0  0.991723  0
H  H33  1  0.15106618  0.42164800  0.82130167  1  0.117574  0  0.120419  0.114155  0  0.987713  0
H  H34  1  0.14031057  0.29870037  0.45503527  1  0.082856  0  0.119137  0.111925  0  0.990911  0
H  H35  1  0.09032337  0.15900238  0.58543359  1  0.081864  0  0.119277  0.112543  0  0.990833  0
H  H36  1  0.12989916  0.99168915  0.30065369  1  0.10157  0  0.120096  0.111694  0  0.99209  0
H  H37  1  0.19771557  0.98624083  0.48358956  1  0.10922  0  0.119519  0.111101  0  0.992619  0
H  H38  1  0.48024584  0.75346679  0.22138084  1  0.106435  0  0.119359  0.112581  0  0.99046  0
H  H39  1  0.34888089  0.91931966  0.17656267  1  0.115351  0  0.120245  0.114106  0  0.987685  0
H  H40  1  0.35709954  0.80014492  0.54696716  1  0.113229  0  0.118957  0.111877  0  0.991047  0
H  H41  1  0.40579986  0.66041699  0.41663912  1  0.060184  0  0.118894  0.111872  0  0.991735  0
H  H42  1  0.86461493  0.50273204  0.79941105  1  0.086608  0  0.120381  0.112014  0  0.99146  0
H  H43  1  0.80703779  0.52124256  0.98445638  1  0.084188  0  0.11971  0.111701  0  0.991205  0
H  H44  1  0.52875579  0.74925229  0.71520776  1  0.102345  0  0.118956  0.111448  0  0.990766  0
H  H45  1  0.64217714  0.57315279  0.68078243  1  0.108214  0  0.119889  0.112551  0  0.988543  0
H  H46  1  0.63981720  0.70314408  0.04135710  1  0.115135  0  0.119002  0.111525  0  0.991884  0
H  H47  1  0.59462759  0.84356074  0.91159061  1  0.07754  0  0.119199  0.112244  0  0.990999  0
C  C48  1  0.40405706  0.56806673  0.59291846  1  0.038721  0  -0.010961  0.101137  0  4.079818  0
C  C49  1  0.38211661  0.61049358  0.54955622  1  -0.011602  0  -0.099647  -0.200863  0  3.940185  0
C  C50  1  0.41805044  0.66894885  0.54715143  1  -0.034194  0  -0.009605  0.102161  0  4.066722  0
C  C51  1  0.47690245  0.68526541  0.58891380  1  -0.040408  0  -0.099512  -0.20236  0  3.94311  0
C  C52  1  0.50137359  0.64300754  0.63169342  1  0.007466  0  -0.010758  0.102147  0  4.072764  0
C  C53  1  0.46519111  0.58469535  0.63267654  1  -0.067649  0  -0.098764  -0.197875  0  3.941089  0
C  C54  1  0.59795672  0.93089972  0.09404520  1  -0.014608  0  -0.010989  0.101495  0  4.078235  0
C  C55  1  0.61796030  0.89073016  0.04801194  1  0.03061  0  -0.097966  -0.197423  0  3.938267  0
C  C56  1  0.58019458  0.83315486  0.04350907  1  -0.052851  0  -0.010136  0.10223  0  4.065265  0
C  C57  1  0.52108051  0.81541831  0.08573581  1  -0.05322  0  -0.100024  -0.205137  0  3.946628  0
C  C58  1  0.49853169  0.85547032  0.13119879  1  0.005349  0  -0.009723  0.103475  0  4.067334  0
C  C59  1  0.53671263  0.91294532  0.13436575  1  -0.028691  0  -0.098889  -0.199771  0  3.943724  0
C  C60  1  0.90351723  0.43173607  0.90666406  1  -0.013292  0  -0.011147  0.101099  0  4.079272  0
C  C61  1  0.88213387  0.39059915  0.95165929  1  -0.029555  0  -0.098285  -0.198186  0  3.940306  0
C  C62  1  0.91939236  0.33270863  0.95542414  1  -0.047506  0  -0.00998  0.100924  0  4.067208  0
C  C63  1  0.97911462  0.31570756  0.91340318  1  0.004548  0  -0.099395  -0.202125  0  3.943563  0
C  C64  1  0.00293801  0.35670072  0.86895739  1  0.023035  0  -0.010165  0.101677  0  4.070219  0
C  C65  1  0.96544740  0.41451568  0.86660382  1  -0.10352  0  -0.098895  -0.198195  0  3.943935  0
C  C66  1  0.09572187  0.06957032  0.40570245  1  -0.028624  0  -0.011161  0.100997  0  4.081034  0
C  C67  1  0.03458440  0.08661154  0.36602827  1  -0.024053  0  -0.098747  -0.198075  0  3.942322  0
C  C68  1  0.99649147  0.14425894  0.36858329  1  0.016839  0  -0.00969  0.103146  0  4.067464  0
C  C69  1  0.01914074  0.18545725  0.41268945  1  -0.025555  0  -0.099682  -0.204447  0  3.944492  0
C  C70  1  0.07819522  0.16868136  0.45422961  1  0.00402  0  -0.010059  0.102719  0  4.064975  0
C  C71  1  0.11579600  0.11091325  0.45035553  1  -0.051407  0  -0.098663  -0.198969  0  3.940838  0
C  C72  1  0.65510537  0.01700341  0.15769343  1  0.417186  0  0.005342  -0.051934  0  3.961883  0
C  C73  1  0.64398807  0.98754251  0.10365866  1  0.002138  0  -0.036154  -0.034966  0  4.077297  0
C  C74  1  0.69159030  0.02245431  0.06411338  1  0.448701  0  0.005472  -0.052264  0  3.957688  0
C  C75  1  0.93396642  0.20822623  0.28414920  1  0.415741  0  0.003289  -0.056757  0  3.963061  0
C  C76  1  0.93584466  0.15876777  0.32341904  1  0.026054  0  -0.035935  -0.03162  0  4.07882  0
C  C77  1  0.87233069  0.12032429  0.30456028  1  0.400588  0  0.002495  -0.060343  0  3.972059  0
C  C78  1  0.86900222  0.22882492  0.99644689  1  0.392911  0  0.002926  -0.059428  0  3.97003  0
C  C79  1  0.89397695  0.29002301  0.00204868  1  0.066578  0  -0.035308  -0.029326  0  4.080677  0
C  C80  1  0.88714510  0.30153551  0.06236232  1  0.357798  0  0.00233  -0.059427  0  3.970953  0
C  C81  1  0.34739556  0.47978628  0.65467864  1  0.469998  0  0.005299  -0.051378  0  3.964004  0
C  C82  1  0.35962414  0.51029440  0.60105855  1  -0.025105  0  -0.036109  -0.034341  0  4.077872  0
C  C83  1  0.31424223  0.47541410  0.56107194  1  0.359565  0  0.005235  -0.052902  0  3.954668  0
C  C84  1  0.06427251  0.29214410  0.78378988  1  0.386967  0  0.002339  -0.05879  0  3.9657  0
C  C85  1  0.06376172  0.34152734  0.82306352  1  0.023709  0  -0.035218  -0.029485  0  4.078771  0
C  C86  1  0.12860088  0.37888372  0.80326019  1  0.360958  0  0.002441  -0.060667  0  3.971515  0
C  C87  1  0.13145588  0.27157811  0.49451500  1  0.432165  0  0.002207  -0.058755  0  3.968345  0
C  C88  1  0.10311929  0.21120706  0.50060373  1  -0.011863  0  -0.035685  -0.031136  0  4.082338  0
C  C89  1  0.10771962  0.19977565  0.56096115  1  0.400876  0  0.001787  -0.060946  0  3.972316  0
C  C90  1  0.15343301  0.98127274  0.34383762  1  0.386124  0  0.005007  -0.052826  0  3.96233  0
C  C91  1  0.14172995  0.01257093  0.39704458  1  0.016457  0  -0.036136  -0.033844  0  4.07689  0
C  C92  1  0.18913882  0.97908404  0.43701703  1  0.37744  0  0.004797  -0.053764  0  3.957636  0
C  C93  1  0.43837739  0.79206026  0.21802889  1  0.36656  0  0.002064  -0.058972  0  3.963706  0
C  C94  1  0.43783984  0.84022098  0.17728053  1  0.042407  0  -0.034927  -0.02929  0  4.076039  0
C  C95  1  0.37211684  0.87736319  0.19589858  1  0.355257  0  0.00219  -0.060722  0  3.972506  0
C  C96  1  0.36590556  0.77304992  0.50751605  1  0.376941  0  0.002762  -0.05913  0  3.96569  0
C  C97  1  0.39289673  0.71229623  0.50144690  1  -0.042038  0  -0.0357  -0.0302  0  4.081162  0
C  C98  1  0.38891904  0.70129952  0.44103265  1  0.473361  0  0.002205  -0.060528  0  3.972299  0
C  C99  1  0.84360072  0.51640774  0.84279646  1  0.413773  0  0.004921  -0.052971  0  3.963447  0
C  C100  1  0.85770675  0.48860244  0.89729734  1  0.018593  0  -0.035459  -0.032991  0  4.077338  0
C  C101  1  0.81296213  0.52507597  0.93717053  1  0.424275  0  0.00447  -0.055075  0  3.959397  0
C  C102  1  0.56616417  0.70803731  0.71423316  1  0.421665  0  0.003838  -0.054906  0  3.962068  0
C  C103  1  0.56186576  0.65718739  0.67685641  1  -0.040899  0  -0.035624  -0.031883  0  4.081426  0
C  C104  1  0.62315453  0.61761264  0.69742722  1  0.389174  0  0.003013  -0.057756  0  3.970001  0
C  C105  1  0.63211793  0.73039572  0.00198905  1  0.347504  0  0.002383  -0.058917  0  3.971613  0
C  C106  1  0.60522014  0.79112910  0.99629735  1  0.003254  0  -0.035512  -0.030317  0  4.082242  0
C  C107  1  0.61082867  0.80257863  0.93588465  1  0.444678  0  0.001321  -0.061481  0  3.969953  0
N  N108  1  0.72821470  0.06902775  0.09261772  1  -0.761651  0  -0.337675  -0.140774  0  3.762654  0
N  N109  1  0.70578223  0.06538940  0.15081440  1  -0.788685  0  -0.341919  -0.142559  0  3.770455  0
N  N110  1  0.83550069  0.14501263  0.25742398  1  -0.779416  0  -0.342733  -0.141798  0  3.777069  0
N  N111  1  0.87415510  0.19940564  0.24431164  1  -0.776319  0  -0.339656  -0.145922  0  3.75147  0
N  N112  1  0.86047750  0.25074295  0.09065417  1  -0.77392  0  -0.338866  -0.143451  0  3.764964  0
N  N113  1  0.84844133  0.20570623  0.04956375  1  -0.77843  0  -0.339839  -0.142627  0  3.768435  0
N  N114  1  0.27763123  0.42793994  0.58904705  1  -0.773098  0  -0.336611  -0.139514  0  3.759705  0
N  N115  1  0.29804005  0.43091226  0.64724719  1  -0.792338  0  -0.344065  -0.145393  0  3.774893  0
N  N116  1  0.16492071  0.35359896  0.75559691  1  -0.773658  0  -0.343184  -0.14196  0  3.779154  0
N  N117  1  0.12458252  0.29997037  0.74306093  1  -0.765911  0  -0.34  -0.146084  0  3.750378  0
N  N118  1  0.13638220  0.24986259  0.58881434  1  -0.773317  0  -0.338912  -0.143906  0  3.767408  0
N  N119  1  0.15188674  0.29432332  0.54739851  1  -0.779534  0  -0.338848  -0.141634  0  3.766277  0
N  N120  1  0.22621494  0.93158787  0.40952265  1  -0.754429  0  -0.336705  -0.139914  0  3.760643  0
N  N121  1  0.20426397  0.93319492  0.35154724  1  -0.786067  0  -0.342486  -0.143647  0  3.77027  0
N  N122  1  0.33622316  0.85315103  0.24426455  1  -0.775051  0  -0.343555  -0.144017  0  3.780108  0
N  N123  1  0.37771536  0.80041160  0.25841722  1  -0.762093  0  -0.339592  -0.144352  0  3.753437  0
N  N124  1  0.36197878  0.75191681  0.41309432  1  -0.773949  0  -0.33963  -0.142448  0  3.767105  0
N  N125  1  0.34692448  0.79638751  0.45449088  1  -0.769745  0  -0.338509  -0.14213  0  3.763863  0
N  N126  1  0.77506535  0.57099057  0.90834594  1  -0.768061  0  -0.33733  -0.140221  0  3.764163  0
N  N127  1  0.79386474  0.56533177  0.84971259  1  -0.786721  0  -0.343352  -0.14264  0  3.774908  0
N  N128  1  0.66091737  0.64297058  0.74373907  1  -0.780145  0  -0.342809  -0.141007  0  3.782994  0
N  N129  1  0.62512143  0.69894129  0.75467283  1  -0.770261  0  -0.33965  -0.147416  0  3.750188  0
N  N130  1  0.63873011  0.75211000  0.90765268  1  -0.763686  0  -0.337683  -0.142734  0  3.761281  0
N  N131  1  0.65268873  0.70743565  0.94888429  1  -0.788784  0  -0.339935  -0.14233  0  3.771776  0
