# generated using pymatgen
data_Zn4H55C78N19
_symmetry_space_group_name_H-M   'P 1'
_cell_length_a   19.74988386
_cell_length_b   19.85822864
_cell_length_c   20.66362709
_cell_angle_alpha   108.06648139
_cell_angle_beta   106.12733579
_cell_angle_gamma   112.41045956
_symmetry_Int_Tables_number   1
_chemical_formula_structural   Zn4H55C78N19
_chemical_formula_sum   'Zn4 H55 C78 N19'
_cell_volume   6358.80849186
_cell_formula_units_Z   1
loop_
 _symmetry_equiv_pos_site_id
 _symmetry_equiv_pos_as_xyz
  1  'x, y, z'
loop_
 _atom_site_type_symbol
 _atom_site_label
 _atom_site_symmetry_multiplicity
 _atom_site_fract_x
 _atom_site_fract_y
 _atom_site_fract_z
 _atom_site_occupancy
 _atom_site_pbe_bader_charge
 _atom_site_pbe_bader_spin_density
 _atom_site_pbe_cm5_charge
 _atom_site_pbe_ddec_charge
 _atom_site_pbe_ddec_spin_density
 _atom_site_pbe_ddec_sum_bond_order
 _atom_site_pbe_magmom
Zn  Zn0  1  0.60424047  0.60251976  0.50166792  1  1.196092  0  0.740307  0.616573  0  2.408562  0
Zn  Zn1  1  0.39611712  0.39697949  0.50106775  1  1.188041  0  0.742062  0.602396  0  2.473543  0
Zn  Zn2  1  0.50488860  0.59931845  0.60389454  1  1.19057  0  0.746074  0.604907  0  2.475972  0
Zn  Zn3  1  0.49705226  0.40269729  0.39789281  1  1.191547  0  0.743004  0.612815  0  2.427099  0
H  H4  1  0.76145175  0.60921259  0.61333063  1  0.07389  0  0.115521  0.101379  0  1.015104  0
H  H5  1  0.09473959  0.65310499  0.39339497  1  0.045252  0  0.097588  0.085476  0  0.995076  0
H  H6  1  0.50079266  0.35931715  0.62409826  1  0.092851  0  0.119554  0.109145  0  0.992927  0
H  H7  1  0.93150740  0.52708552  0.28517986  1  0.074321  0  0.098057  0.085383  0  0.993069  0
H  H8  1  0.97710733  0.40715759  0.28114891  1  0.066273  0  0.096674  0.08417  0  0.995084  0
H  H9  1  0.93296231  0.39719624  0.39888989  1  0.048617  0  0.094208  0.090856  0  1.001212  0
H  H10  1  0.69612865  0.22117247  0.73710221  1  0.061489  0  0.097867  0.08582  0  0.994796  0
H  H11  1  0.55059842  0.06660486  0.67209845  1  0.044217  0  0.093831  0.090715  0  1.0016  0
H  H12  1  0.76846556  0.13917483  0.67123396  1  0.058241  0  0.098156  0.085644  0  0.994615  0
H  H13  1  0.71052961  0.15853275  0.54028067  1  0.064967  0  0.097419  0.084748  0  0.995892  0
H  H14  1  0.56386269  0.00397780  0.47319516  1  0.066317  0  0.098345  0.09401  0  0.990882  0
H  H15  1  0.24320664  0.38062360  0.37377982  1  0.135605  0  0.120254  0.111503  0  0.992638  0
H  H16  1  0.32248492  0.40021114  0.14130106  1  0.047439  0  0.098405  0.09751  0  1.006841  0
H  H17  1  0.43648948  0.61889265  0.73514600  1  0.076648  0  0.116956  0.104967  0  0.999458  0
H  H18  1  0.32804358  0.60089092  0.77923139  1  0.067456  0  0.096253  0.095196  0  1.008348  0
H  H19  1  0.29013438  0.35776945  0.72514162  1  0.029117  0  0.095821  0.094407  0  1.008536  0
H  H20  1  0.23751475  0.43135650  0.93835460  1  0.06025  0  0.092577  0.105938  0  1.044075  0
H  H21  1  0.39462180  0.67572947  0.16065339  1  0.057932  0  0.09949  0.097395  0  1.011012  0
H  H22  1  0.29221433  0.60446394  0.88441041  1  0.038856  0  0.102335  0.105529  0  0.999458  0
H  H23  1  0.43685436  0.66290028  0.27717900  1  0.051887  0  0.099162  0.100361  0  1.001316  0
H  H24  1  0.28462209  0.41372154  0.02559527  1  0.079104  0  0.099451  0.097548  0  1.014931  0
H  H25  1  0.25513572  0.36163480  0.83094021  1  0.049897  0  0.097763  0.097905  0  0.997235  0
H  H26  1  0.53560354  0.79333433  0.66197418  1  0.081744  0  0.12135  0.111838  0  0.988545  0
H  H27  1  0.74481312  0.61176079  0.84466216  1  0.052568  0  0.098679  0.09824  0  1.003426  0
H  H28  1  0.63860120  0.37515197  0.34513277  1  0.086484  0  0.120696  0.110816  0  0.9897  0
H  H29  1  0.29863109  0.05169992  0.20623907  1  0.032285  0  0.09814  0.097322  0  1.003877  0
H  H30  1  0.11978434  0.08597819  0.27033314  1  0.052969  0  0.096659  0.095573  0  1.00756  0
H  H31  1  0.96425441  0.82244572  0.06073492  1  0.048406  0  0.096013  0.092692  0  1.012972  0
H  H32  1  0.01169561  0.77745298  0.85261585  1  0.054622  0  0.098296  0.096451  0  1.001312  0
H  H33  1  0.19024271  0.91275381  0.10321951  1  0.020142  0  0.099812  0.098939  0  1.003396  0
H  H34  1  0.88542136  0.69871722  0.73171406  1  0.057912  0  0.098114  0.097882  0  1.004319  0
H  H35  1  0.08085490  0.83371760  0.98700330  1  0.057911  0  0.096813  0.093592  0  1.009602  0
H  H36  1  0.87077701  0.69256176  0.96591105  1  0.056558  0  0.098988  0.097866  0  1.002682  0
H  H37  1  0.37251694  0.20714850  0.25646203  1  0.0762  0  0.117353  0.105284  0  0.998546  0
H  H38  1  0.01168927  0.94586916  0.16871539  1  0.043412  0  0.098159  0.097282  0  0.999198  0
H  H39  1  0.29761396  0.35292364  0.60477416  1  0.096018  0  0.115813  0.104178  0  1.00063  0
H  H40  1  0.77896499  0.63960930  0.48840776  1  0.076511  0  0.120497  0.110509  0  0.990036  0
H  H41  1  0.63357350  0.37462273  0.48860478  1  0.103672  0  0.120216  0.110667  0  1.002668  0
H  H42  1  0.63211927  0.60846054  0.75203350  1  0.089932  0  0.117118  0.104822  0  0.999203  0
H  H43  1  0.50973916  0.65222816  0.38432863  1  0.127241  0  0.115851  0.101178  0  1.014311  0
H  H44  1  0.14515614  0.50002327  0.50866909  1  0.398762  0  0.291469  0.239637  0  0.969154  0
H  H45  1  0.13676401  0.52245169  0.62498764  1  0.044393  0  0.099606  0.106077  0  0.987602  0
H  H46  1  0.03298981  0.45407135  0.55253667  1  0.040168  0  0.081422  0.071526  0  1.008096  0
H  H47  1  0.07146603  0.56179597  0.60213383  1  0.037463  0  0.097749  0.102172  0  0.983556  0
H  H48  1  0.23968499  0.20153100  0.39144800  1  0.091804  0  0.116003  0.10342  0  0.999431  0
H  H49  1  0.47288030  0.13735551  0.55174565  1  0.408324  0  0.291238  0.236722  0  0.971354  0
H  H50  1  0.34905176  0.00846355  0.46791407  1  0.049112  0  0.100569  0.106293  0  0.984009  0
H  H51  1  0.39622210  0.99747394  0.54848868  1  0.013752  0  0.08043  0.070354  0  1.009629  0
H  H52  1  0.40605457  0.95785301  0.46373701  1  0.022919  0  0.099341  0.105027  0  0.98208  0
H  H53  1  0.38314964  0.63869003  0.97953374  1  0.434417  0  0.287604  0.276759  0  0.998302  0
H  H54  1  0.43268976  0.66774462  0.07328140  1  0.413001  0  0.296056  0.280858  0  0.967261  0
H  H55  1  0.66088540  0.79179258  0.52022029  1  0.073109  0  0.120999  0.111408  0  0.988969  0
H  H56  1  0.36562875  0.38596344  0.24849774  1  0.078092  0  0.117679  0.104696  0  1.002575  0
H  H57  1  0.39281916  0.64693659  0.50694535  1  0.131  0  0.119973  0.110628  0  1.000061  0
H  H58  1  0.05327302  0.64499598  0.51298856  1  0.077951  0  0.097588  0.092961  0  0.99175  0
C  C59  1  0.71909944  0.60714139  0.63780280  1  0.413611  0  0.009018  -0.044022  0  3.955124  0
C  C60  1  0.62792907  0.77854046  0.55307277  1  0.42811  0  0.010727  -0.058453  0  3.977685  0
C  C61  1  0.40764337  0.45000648  0.29136087  1  0.447484  0  0.009313  -0.047631  0  3.968569  0
C  C62  1  0.52614580  0.36863577  0.58513004  1  0.416944  0  0.014102  -0.048502  0  3.939127  0
C  C63  1  0.36772413  0.58076398  0.48052296  1  0.438759  0  0.014679  -0.042617  0  3.927279  0
C  C64  1  0.41995910  0.52284189  0.28699000  1  -0.040173  0  -0.035989  -0.044873  0  4.075259  0
C  C65  1  0.28728810  0.51676024  0.42598527  1  0.028218  0  -0.029345  0.047163  0  4.18995  0
C  C66  1  0.60236012  0.82658649  0.59404797  1  0.134217  0  -0.033559  0.044005  0  4.221416  0
C  C67  1  0.27956730  0.16635539  0.30026528  1  0.031527  0  -0.03846  -0.040251  0  4.103421  0
C  C68  1  0.06126559  0.52571907  0.45968339  1  0.467774  0  0.095982  0.20026  0  3.724114  0
C  C69  1  0.03645894  0.59208617  0.46123533  1  -0.065552  0  -0.077749  -0.139009  0  3.624749  0
C  C70  1  0.58389874  0.34978436  0.56995399  1  0.122143  0  -0.030348  0.044982  0  4.191722  0
C  C71  1  0.81083450  0.51184842  0.40878042  1  -0.371948  0  -0.073031  -0.128635  0  4.233432  0
C  C72  1  0.21680065  0.52307577  0.40270767  1  -0.262183  0  -0.066078  -0.118575  0  4.207702  0
C  C73  1  0.96997525  0.45409867  0.39818685  1  -0.053956  0  -0.085177  -0.159363  0  3.616931  0
C  C74  1  0.40783070  0.55449407  0.69445089  1  0.404222  0  0.002904  -0.061667  0  4.006286  0
C  C75  1  0.94516184  0.52157679  0.40108768  1  0.104029  0  0.001504  0.143437  0  3.825302  0
C  C76  1  0.99287387  0.45950759  0.33273582  1  -0.032735  0  -0.077518  -0.074218  0  3.671259  0
C  C77  1  0.08418817  0.52945164  0.39255086  1  0.08824  0  0.002776  0.086691  0  3.811974  0
C  C78  1  0.96916637  0.52648736  0.33481383  1  -0.046794  0  -0.074143  -0.077627  0  3.635243  0
C  C79  1  0.05890762  0.59655550  0.39513299  1  -0.012338  0  -0.073617  -0.074561  0  3.647774  0
C  C80  1  0.87333339  0.51689958  0.40564214  1  0.028761  0  -0.066371  -0.137983  0  4.156695  0
C  C81  1  0.34975559  0.48395270  0.69187149  1  0.016449  0  -0.038699  -0.037912  0  4.105487  0
C  C82  1  0.15573683  0.52893078  0.39265123  1  -0.068116  0  -0.065762  -0.13818  0  4.155143  0
C  C83  1  0.58546528  0.08751950  0.64241886  1  -0.046625  0  -0.084641  -0.157534  0  3.618789  0
C  C84  1  0.66632326  0.17203765  0.67861434  1  -0.02843  0  -0.077081  -0.073762  0  3.667063  0
C  C85  1  0.61334709  0.30238625  0.59266969  1  -0.341127  0  -0.064917  -0.11793  0  4.208551  0
C  C86  1  0.66092770  0.43936577  0.38162496  1  0.406954  0  0.010671  -0.058446  0  3.972321  0
C  C87  1  0.61154576  0.90243027  0.60000078  1  -0.209037  0  -0.073668  -0.130846  0  4.2355  0
C  C88  1  0.55255999  0.09693502  0.56796240  1  0.443723  0  0.096937  0.191697  0  3.742694  0
C  C89  1  0.63427411  0.18352121  0.60596897  1  0.107276  0  0.001989  0.085732  0  3.811812  0
C  C90  1  0.59351786  0.05274685  0.53194057  1  -0.048222  0  -0.077798  -0.138644  0  3.62802  0
C  C91  1  0.62538978  0.04159122  0.60493405  1  0.122105  0  0.000706  0.144628  0  3.822448  0
C  C92  1  0.74024549  0.50840486  0.41432165  1  0.12642  0  -0.033868  0.043198  0  4.221014  0
C  C93  1  0.67457433  0.13750459  0.56907640  1  -0.028966  0  -0.0733  -0.071064  0  3.648071  0
C  C94  1  0.70691256  0.12797415  0.64194860  1  -0.03366  0  -0.074104  -0.079525  0  3.63674  0
C  C95  1  0.63054791  0.25243552  0.60305938  1  -0.043174  0  -0.066245  -0.136904  0  4.155206  0
C  C96  1  0.61894942  0.96743561  0.60311236  1  -0.181674  0  -0.064689  -0.13542  0  4.157289  0
C  C97  1  0.38557134  0.53074289  0.21922220  1  0.04041  0  -0.007938  0.09168  0  4.041626  0
C  C98  1  0.33795139  0.41894233  0.62883457  1  0.371798  0  0.000956  -0.066127  0  4.006132  0
C  C99  1  0.33856161  0.46123168  0.14643917  1  -0.042449  0  -0.096824  -0.135426  0  3.999377  0
C  C100  1  0.31628151  0.46878496  0.08040903  1  -0.068252  0  -0.091371  -0.115137  0  4.010191  0
C  C101  1  0.33834540  0.54620927  0.08294281  1  0.009353  0  -0.016213  0.023893  0  4.002116  0
C  C102  1  0.37995120  0.61498965  0.15573417  1  -0.084191  0  -0.098484  -0.131059  0  4.008788  0
C  C103  1  0.48099868  0.58574458  0.36074606  1  0.385588  0  0.010835  -0.042725  0  3.956771  0
C  C104  1  0.40316015  0.60755176  0.22213773  1  -0.06307  0  -0.096967  -0.136815  0  3.997445  0
C  C105  1  0.29608868  0.55187868  0.85261505  1  -0.029557  0  -0.105995  -0.162704  0  4.006212  0
C  C106  1  0.31470865  0.54913347  0.79187341  1  -0.079886  0  -0.101392  -0.142016  0  4.034517  0
C  C107  1  0.29098467  0.41236568  0.76012110  1  -0.057415  0  -0.099952  -0.137712  0  4.026169  0
C  C108  1  0.27145535  0.41459669  0.81994517  1  -0.06263  0  -0.098093  -0.135464  0  3.989227  0
C  C109  1  0.27879854  0.48647906  0.87132789  1  -0.039366  0  -0.016774  0.139939  0  4.053275  0
C  C110  1  0.73266659  0.57448875  0.45490512  1  0.402955  0  0.010235  -0.059457  0  3.980184  0
C  C111  1  0.32731255  0.55585384  0.01323958  1  0.350297  0  0.086117  0.243877  0  4.096555  0
C  C112  1  0.27557607  0.49016614  0.94168359  1  0.020881  0  -0.135176  -0.322609  0  3.995252  0
C  C113  1  0.31693292  0.48125426  0.74681739  1  0.032852  0  -0.021214  0.070248  0  4.072326  0
C  C114  1  0.29113079  0.44447475  0.41244631  1  0.386332  0  0.012836  -0.050206  0  3.936984  0
C  C115  1  0.80448715  0.65220879  0.77929170  1  -0.048943  0  -0.009119  0.089184  0  4.03909  0
C  C116  1  0.80310587  0.64934334  0.84630684  1  -0.024063  0  -0.096373  -0.137318  0  4.005555  0
C  C117  1  0.87426805  0.69491093  0.91479984  1  -0.077645  0  -0.094122  -0.127941  0  3.991788  0
C  C118  1  0.95063539  0.74531944  0.91965491  1  0.05477  0  -0.020103  0.100501  0  4.062308  0
C  C119  1  0.95304261  0.74077599  0.85095589  1  -0.066759  0  -0.095138  -0.132932  0  4.001403  0
C  C120  1  0.88171704  0.69607940  0.78264462  1  -0.025857  0  -0.097065  -0.135566  0  4.002766  0
C  C121  1  0.17409884  0.95082084  0.13904981  1  -0.016117  0  -0.094177  -0.127464  0  3.989855  0
C  C122  1  0.59406189  0.37646682  0.51578001  1  0.414994  0  0.015005  -0.04171  0  3.923859  0
C  C123  1  0.23524865  0.02940847  0.19697329  1  -0.065913  0  -0.097436  -0.138061  0  4.012005  0
C  C124  1  0.13585385  0.04788409  0.23437101  1  -0.107062  0  -0.099925  -0.139214  0  4.017721  0
C  C125  1  0.56414149  0.77950007  0.62570929  1  0.432282  0  0.012228  -0.057407  0  3.974663  0
C  C126  1  0.07483051  0.96891956  0.17693112  1  -0.030076  0  -0.095425  -0.134283  0  4.000722  0
C  C127  1  0.09159058  0.91965656  0.12565232  1  0.028091  0  -0.018009  0.105587  0  4.057769  0
C  C128  1  0.02345941  0.80793483  0.99135734  1  -0.046826  0  -0.095768  -0.13557  0  4.016128  0
C  C129  1  0.02303463  0.84443057  0.05847086  1  -0.102024  0  -0.098753  -0.141785  0  4.020149  0
C  C130  1  0.21714099  0.08092473  0.24439205  1  0.031997  0  -0.013693  0.081238  0  4.055268  0
C  C131  1  0.65257492  0.60527610  0.70809287  1  0.414936  0  0.009222  -0.048328  0  3.968097  0
C  C132  1  0.72917231  0.61906161  0.71144938  1  0.006121  0  -0.034796  -0.040219  0  4.073395  0
C  C133  1  0.08770208  0.51598947  0.57791604  1  0.25597  0  -0.143477  -0.201593  0  4.028574  0
C  C134  1  0.40369813  0.00928886  0.50119511  1  0.292563  0  -0.143734  -0.204741  0  4.033216  0
C  C135  1  0.34998924  0.21937091  0.29856183  1  0.411868  0  0.003919  -0.060571  0  3.999062  0
C  C136  1  0.28162723  0.21683982  0.36669235  1  0.391909  0  0.003254  -0.06229  0  4.00643  0
N  N137  1  0.64325676  0.58943313  0.59533640  1  -0.776832  0  -0.279263  -0.17966  0  3.626815  0
N  N138  1  0.42878926  0.53316197  0.63793547  1  -0.788309  0  -0.271924  -0.170004  0  3.561795  0
N  N139  1  0.61103410  0.46285684  0.40131351  1  -0.784098  0  -0.266394  -0.178383  0  3.534487  0
N  N140  1  0.38505277  0.44860964  0.59676252  1  -0.797483  0  -0.271441  -0.173458  0  3.554204  0
N  N141  1  0.65575008  0.54689107  0.44687815  1  -0.789457  0  -0.269303  -0.177331  0  3.547969  0
N  N142  1  0.54465894  0.40651557  0.49926624  1  -0.789167  0  -0.282103  -0.187592  0  3.639068  0
N  N143  1  0.60247148  0.58837063  0.63860991  1  -0.795442  0  -0.285875  -0.180639  0  3.652811  0
N  N144  1  0.50336550  0.55233731  0.40412970  1  -0.775261  0  -0.278493  -0.174344  0  3.623655  0
N  N145  1  0.11734523  0.53193612  0.52401829  1  -1.134331  0  -0.47811  -0.368836  0  3.534013  0
N  N146  1  0.47663804  0.08691165  0.52596884  1  -1.13053  0  -0.477773  -0.362796  0  3.540709  0
N  N147  1  0.37772950  0.63506547  0.02607911  1  -1.225519  0  -0.600214  -0.601042  0  3.325025  0
N  N148  1  0.36723165  0.46476447  0.45722736  1  -0.817087  0  -0.28265  -0.184966  0  3.64241  0
N  N149  1  0.56685376  0.70972150  0.60500541  1  -0.788516  0  -0.268822  -0.17513  0  3.552037  0
N  N150  1  0.39016534  0.29492266  0.35876640  1  -0.786912  0  -0.268435  -0.17207  0  3.534115  0
N  N151  1  0.34766287  0.29314340  0.40141772  1  -0.804604  0  -0.271  -0.172947  0  3.553191  0
N  N152  1  0.60651004  0.70913167  0.55982063  1  -0.793374  0  -0.268903  -0.177329  0  3.547414  0
N  N153  1  0.45815433  0.46891617  0.36148392  1  -0.806716  0  -0.282947  -0.177608  0  3.646892  0
N  N154  1  0.41411895  0.54826265  0.49892803  1  -0.771422  0  -0.28468  -0.191709  0  3.643752  0
N  N155  1  0.50304277  0.40178463  0.54179753  1  -0.790793  0  -0.281344  -0.179459  0  3.640846  0
