# generated using pymatgen
data_MnH19C21(NO3)2
_symmetry_space_group_name_H-M   'P 1'
_cell_length_a   8.57092515
_cell_length_b   9.97313224
_cell_length_c   13.08379068
_cell_angle_alpha   73.43017769
_cell_angle_beta   79.01720284
_cell_angle_gamma   81.57460736
_symmetry_Int_Tables_number   1
_chemical_formula_structural   MnH19C21(NO3)2
_chemical_formula_sum   'Mn2 H38 C42 N4 O12'
_cell_volume   1047.24903448
_cell_formula_units_Z   2
loop_
 _symmetry_equiv_pos_site_id
 _symmetry_equiv_pos_as_xyz
  1  'x, y, z'
loop_
 _atom_site_type_symbol
 _atom_site_label
 _atom_site_symmetry_multiplicity
 _atom_site_fract_x
 _atom_site_fract_y
 _atom_site_fract_z
 _atom_site_occupancy
 _atom_site_hle17_ddec_charge
 _atom_site_hle17_ddec_spin_density
 _atom_site_hle17_ddec_sum_bond_order
 _atom_site_hle17_magmom
 _atom_site_hse06_10hf_ddec_charge
 _atom_site_hse06_10hf_ddec_spin_density
 _atom_site_hse06_10hf_ddec_sum_bond_order
 _atom_site_hse06_10hf_magmom
 _atom_site_hse06_ddec_charge
 _atom_site_hse06_ddec_spin_density
 _atom_site_hse06_ddec_sum_bond_order
 _atom_site_hse06_magmom
 _atom_site_pbe_cm5_charge
 _atom_site_pbe_ddec_charge
 _atom_site_pbe_ddec_spin_density
 _atom_site_pbe_ddec_sum_bond_order
 _atom_site_pbe_magmom
Mn  Mn0  1  0.95174240  0.84356890  0.82011892  1  1.096426  4.801488  1.802626  4.664  0.924  4.723583  2.304182  4.515  0.986002  4.770926  2.231693  4.585  0.595473  0.876494  4.673768  2.359227  4.444
Mn  Mn1  1  0.04825772  0.15642740  0.17988461  1  1.096421  4.801501  1.802542  4.664  0.924013  4.723598  2.304084  4.515  0.986021  4.77094  2.231593  4.585  0.595447  0.876504  4.673782  2.359132  4.444
H  H2  1  0.03872983  0.82013459  0.02856331  1  0.422078  0.000155  0.887212  0.001  0.388299  0.000743  0.957217  0.002  0.399826  0.000472  0.940584  0.002  0.290699  0.380149  0.001041  0.968908  0.002
H  H3  1  0.96126677  0.17987419  0.97144009  1  0.422207  0.000155  0.887052  0.001  0.388342  0.000743  0.95715  0.002  0.399869  0.000471  0.940537  0.002  0.290719  0.380193  0.001041  0.968837  0.002
H  H4  1  0.03445667  0.66976935  0.00684155  1  0.430852  2.8e-05  0.817841  0.001  0.407139  0.000968  0.883226  0.002  0.416382  0.000544  0.872644  0.001  0.319197  0.400346  0.001421  0.890973  0.002
H  H5  1  0.96554961  0.33023788  0.99316472  1  0.430979  2.8e-05  0.817686  0.001  0.407203  0.000968  0.883172  0.002  0.416448  0.000544  0.872581  0.001  0.319203  0.400412  0.001421  0.890911  0.002
H  H6  1  0.97306146  0.89820357  0.56805749  1  0.08045  0.000259  0.932293  0.0  0.089547  0.000881  0.994361  0.001  0.092065  0.000619  0.992233  0.001  0.123107  0.087629  0.001148  0.995942  0.001
H  H7  1  0.02695369  0.10174504  0.43194453  1  0.080404  0.00027  0.932539  0.0  0.089585  0.000881  0.994517  0.001  0.092075  0.000619  0.992424  0.001  0.123141  0.087662  0.001148  0.996105  0.001
H  H8  1  0.79891509  0.89705800  0.43448999  1  0.116145  -9.4e-05  0.98288  0.0  0.120614  -0.000124  1.050106  0.0  0.124717  -0.000214  1.048204  0.0  0.105986  0.117528  2.3e-05  1.051738  0.0
H  H9  1  0.20109073  0.10290191  0.56551513  1  0.116252  -9.1e-05  0.982758  0.0  0.120682  -0.000125  1.050014  0.0  0.124805  -0.000214  1.048089  0.0  0.106024  0.117603  2.3e-05  1.051638  0.0
H  H10  1  0.51230302  0.84254197  0.50659451  1  0.098084  -0.00017  0.939014  0.0  0.10848  -2e-06  0.997872  0.0  0.111429  -2.9e-05  0.996047  0.0  0.109414  0.106311  3.1e-05  0.999235  0.0
H  H11  1  0.48768840  0.15745850  0.49341095  1  0.098112  -0.00016  0.938967  0.0  0.108521  -2e-06  0.997822  0.0  0.111473  -2.9e-05  0.995988  0.0  0.109408  0.106353  3.1e-05  0.999184  0.0
H  H12  1  0.40988378  0.81201247  0.70116103  1  0.127649  -1e-06  0.958378  0.0  0.135406  6e-06  1.0205  0.0  0.13972  -8e-05  1.017917  0.0  0.112718  0.132236  0.000107  1.022505  0.0
H  H13  1  0.59010933  0.18802135  0.29884012  1  0.127685  -1e-06  0.958398  0.0  0.135335  6e-06  1.020612  0.0  0.139647  -8e-05  1.018034  0.0  0.112786  0.132168  0.000107  1.022626  0.0
H  H14  1  0.33952380  0.79856360  0.86557668  1  0.119363  -3.4e-05  0.957285  0.0  0.126366  -6.6e-05  1.020515  0.0  0.129892  -0.000157  1.019326  0.0  0.11222  0.123658  3.7e-05  1.021766  0.0
H  H15  1  0.66047351  0.20146270  0.13441524  1  0.119316  -3.6e-05  0.957366  0.0  0.126291  -6.6e-05  1.020615  0.0  0.129819  -0.000157  1.01942  0.0  0.112213  0.123586  3.6e-05  1.02187  0.0
H  H16  1  0.27544026  0.79267744  0.05972590  1  0.103276  -0.000417  0.972651  0.0  0.113425  -0.000102  1.031887  0.0  0.116921  -0.000204  1.02832  0.0  0.108593  0.110672  1e-05  1.03472  0.0
H  H17  1  0.72456011  0.20734148  0.94026688  1  0.10322  -0.000425  0.97271  0.0  0.113408  -0.000102  1.031907  0.0  0.116921  -0.000204  1.028329  0.0  0.108542  0.110657  1e-05  1.03474  0.0
H  H18  1  0.48922263  0.82482747  0.15447838  1  0.105369  0.000263  0.961966  0.0  0.114596  0.000242  1.021465  0.0  0.117421  0.000171  1.021436  0.0  0.10571  0.112446  0.000316  1.021813  0.0
H  H19  1  0.51078248  0.17517874  0.84551672  1  0.105364  0.000271  0.961947  0.0  0.114563  0.000242  1.0215  0.0  0.117378  0.000171  1.021476  0.0  0.105703  0.112414  0.000316  1.021838  0.0
H  H20  1  0.76404449  0.85824285  0.04928581  1  0.071466  7e-06  0.969774  0.0  0.077459  0.000479  1.039042  0.001  0.079131  0.000293  1.038233  0.0  0.114847  0.076112  0.000672  1.039841  0.001
H  H21  1  0.23596124  0.14175678  0.95071338  1  0.071379  2.2e-05  0.969764  0.0  0.077371  0.000479  1.039073  0.001  0.079043  0.000293  1.038264  0.0  0.114794  0.076027  0.000672  1.039862  0.001
H  H22  1  0.95418531  0.36678261  0.81647468  1  0.099819  -0.000158  0.964065  0.0  0.107984  0.000157  1.029784  0.0  0.11256  1.4e-05  1.025726  0.0  0.105825  0.104622  0.000325  1.032995  0.0
H  H23  1  0.04581839  0.63322718  0.18353837  1  0.099882  -0.000156  0.964011  0.0  0.107983  0.000157  1.02979  0.0  0.112558  1.4e-05  1.025738  0.0  0.105813  0.104624  0.000325  1.033005  0.0
H  H24  1  0.38793297  0.55858603  0.67784923  1  0.112182  -8.8e-05  0.971916  0.0  0.117717  0.000137  1.042822  0.0  0.121851  5.5e-05  1.039862  0.0  0.106119  0.114567  0.000223  1.045165  0.0
H  H25  1  0.61207375  0.44141527  0.32214266  1  0.112241  -9.3e-05  0.971882  0.0  0.117771  0.000137  1.04279  0.0  0.121908  5.5e-05  1.039825  0.0  0.106144  0.114619  0.000223  1.045134  0.0
H  H26  1  0.36487818  0.12365436  0.68867120  1  0.11635  -0.000224  0.943786  0.0  0.124955  -0.000109  1.009376  0.0  0.128359  -0.000141  1.007723  0.0  0.108914  0.122546  -4.4e-05  1.01042  0.0
H  H27  1  0.63510708  0.87634795  0.31132707  1  0.116439  -0.000234  0.943726  0.0  0.125001  -0.000109  1.009355  0.0  0.128406  -0.000141  1.007702  0.0  0.108929  0.122595  -4.4e-05  1.010401  0.0
H  H28  1  0.64561981  0.46268243  0.68318400  1  0.04935  -9e-06  0.911009  0.0  0.067403  4e-06  0.967743  0.0  0.06729  -3e-06  0.967722  0.0  0.100456  0.067374  1.2e-05  0.967896  0.0
H  H29  1  0.35436676  0.53731777  0.31680296  1  0.049257  -1.4e-05  0.911134  0.0  0.067375  3e-06  0.967762  0.0  0.067262  -3e-06  0.96774  0.0  0.100435  0.067348  1.2e-05  0.967916  0.0
H  H30  1  0.59391684  0.52725690  0.55090000  1  0.045795  9e-06  0.941596  0.0  0.059809  3.4e-05  1.009728  0.0  0.059455  2.5e-05  1.010383  0.0  0.096499  0.059893  4.1e-05  1.00947  0.0
H  H31  1  0.40608235  0.47273509  0.44908293  1  0.04596  4e-06  0.941534  0.0  0.059884  3.4e-05  1.009731  0.0  0.05953  2.5e-05  1.010387  0.0  0.096558  0.059968  4.1e-05  1.009476  0.0
H  H32  1  0.81124427  0.35296195  0.48872868  1  0.080106  -4.3e-05  0.932411  0.0  0.096412  -1.6e-05  0.994254  0.0  0.097387  -3.6e-05  0.994428  0.0  0.092354  0.095696  2.3e-05  0.993983  0.0
H  H33  1  0.18875309  0.64702483  0.51126684  1  0.080036  -4.1e-05  0.932567  0.0  0.096405  -1.6e-05  0.994328  0.0  0.097388  -3.7e-05  0.994501  0.0  0.092328  0.095687  2.3e-05  0.994056  0.0
H  H34  1  0.86984425  0.30471932  0.61825054  1  0.073247  -7.9e-05  0.928541  0.0  0.092518  -9e-05  0.984152  0.0  0.092909  -9.6e-05  0.985056  0.0  0.089905  0.092192  -7.3e-05  0.983504  0.0
H  H35  1  0.13013887  0.69526746  0.38174909  1  0.073272  -7.4e-05  0.928498  0.0  0.092555  -8.9e-05  0.984093  0.0  0.092947  -9.6e-05  0.984998  0.0  0.08995  0.092222  -7.3e-05  0.983446  0.0
H  H36  1  0.91346596  0.55849569  0.59436850  1  0.059974  -5.6e-05  0.936459  0.0  0.079788  -6.2e-05  0.995469  0.0  0.079561  -6.5e-05  0.997533  0.0  0.085066  0.079861  -5.1e-05  0.994003  0.0
H  H37  1  0.08653281  0.44147654  0.40563926  1  0.060101  -6e-05  0.936354  0.0  0.079901  -6.2e-05  0.995328  0.0  0.079674  -6.5e-05  0.997391  0.0  0.085086  0.079971  -5.1e-05  0.993863  0.0
H  H38  1  0.85687448  0.60323112  0.46517962  1  0.054353  -1.1e-05  0.968336  0.0  0.070623  1e-05  1.037355  0.0  0.069407  4e-06  1.041684  0.0  0.081382  0.071345  1.3e-05  1.034435  0.0
H  H39  1  0.14312139  0.39675979  0.53482765  1  0.054304  -1.1e-05  0.968384  0.0  0.070599  1e-05  1.037302  0.0  0.069384  4e-06  1.04163  0.0  0.081361  0.07132  1.3e-05  1.034382  0.0
C  C40  1  0.84668783  0.88227844  0.59330998  1  0.138095  0.004241  3.70775  0.004  0.107816  0.006901  3.960748  0.006  0.114961  0.005699  3.978277  0.005  0.057612  0.103268  0.008351  3.948224  0.007
C  C41  1  0.15332856  0.11768264  0.40669054  1  0.138117  0.004142  3.708251  0.004  0.107754  0.006901  3.961291  0.006  0.114922  0.005697  3.978828  0.005  0.057513  0.103205  0.00835  3.948761  0.007
C  C42  1  0.75000949  0.87827577  0.52013661  1  -0.118884  -0.001886  3.716465  -0.001  -0.130944  -0.000908  3.967391  0.0  -0.137726  -0.00174  3.987853  -0.001  -0.079436  -0.126563  -5.8e-05  3.953545  0.0
C  C43  1  0.24999695  0.12169034  0.47986815  1  -0.118987  -0.00178  3.716355  -0.001  -0.130995  -0.00091  3.967292  0.0  -0.137793  -0.001739  3.987742  -0.001  -0.079395  -0.126615  -5.8e-05  3.953437  0.0
C  C44  1  0.59165456  0.85031762  0.56022834  1  -0.007071  0.003847  3.727189  0.003  -0.025995  0.005761  3.979637  0.004  -0.022856  0.004867  3.998823  0.004  -0.066825  -0.028006  0.007176  3.967041  0.005
C  C45  1  0.40834453  0.14967674  0.43977412  1  -0.007044  0.003751  3.727106  0.003  -0.025978  0.005761  3.979511  0.004  -0.022844  0.004866  3.998707  0.004  -0.066821  -0.027984  0.007176  3.966913  0.005
C  C46  1  0.53396337  0.83272872  0.66990794  1  -0.150235  -0.002308  3.6733  -0.002  -0.167534  -0.001271  3.918127  -0.001  -0.174523  -0.001994  3.937773  -0.001  -0.078683  -0.163321  -0.000736  3.905703  -0.001
C  C47  1  0.46603628  0.16728546  0.33009186  1  -0.150317  -0.00219  3.673416  -0.002  -0.167538  -0.001271  3.918279  -0.001  -0.174522  -0.001996  3.937918  -0.001  -0.078824  -0.163334  -0.000736  3.905869  -0.001
C  C48  1  0.63809105  0.84253891  0.73764210  1  0.182326  0.003106  3.749975  0.003  0.179384  0.005958  3.988076  0.005  0.186179  0.004717  4.008442  0.004  0.127817  0.174734  0.007549  3.974689  0.006
C  C49  1  0.36191538  0.15746603  0.26235534  1  0.182233  0.00303  3.750098  0.003  0.179326  0.005957  3.988138  0.005  0.186124  0.004717  4.008504  0.004  0.127878  0.174677  0.00755  3.974757  0.006
C  C50  1  0.58845317  0.83147399  0.85434506  1  0.177344  0.004938  3.752446  0.005  0.174045  0.007781  3.99054  0.007  0.180823  0.006419  4.011147  0.006  0.124463  0.16899  0.009838  3.977102  0.009
C  C51  1  0.41154850  0.16854373  0.14564930  1  0.177298  0.004959  3.752655  0.005  0.174085  0.007778  3.990678  0.007  0.180864  0.006416  4.011288  0.006  0.124524  0.169028  0.009836  3.977253  0.009
C  C52  1  0.43259830  0.81053128  0.90765998  1  -0.137867  -0.004497  3.677174  -0.003  -0.154187  -0.002783  3.919373  -0.002  -0.161618  -0.003854  3.94003  -0.002  -0.075494  -0.149433  -0.002212  3.905993  -0.002
C  C53  1  0.56740044  0.18949261  0.09233524  1  -0.137731  -0.004516  3.677264  -0.003  -0.154026  -0.002781  3.919432  -0.002  -0.161451  -0.003853  3.940088  -0.002  -0.075489  -0.149281  -0.002211  3.906072  -0.002
C  C54  1  0.39625898  0.80601026  0.01696397  1  0.007802  0.005973  3.709619  0.005  -0.010695  0.008275  3.955242  0.006  -0.006063  0.006975  3.971706  0.006  -0.064987  -0.013862  0.010626  3.944475  0.008
C  C55  1  0.60374348  0.19401177  0.98302802  1  0.007881  0.006008  3.709285  0.005  -0.010661  0.008274  3.954909  0.006  -0.006045  0.006975  3.971381  0.006  -0.064918  -0.013828  0.010626  3.944147  0.008
C  C56  1  0.51474232  0.82391735  0.06997829  1  -0.117985  -0.004507  3.734031  -0.003  -0.132268  -0.002857  3.985998  -0.002  -0.139991  -0.003962  4.008914  -0.002  -0.083602  -0.127333  -0.002172  3.971131  -0.001
C  C57  1  0.48525734  0.17609634  0.93001547  1  -0.118025  -0.004554  3.733675  -0.003  -0.132265  -0.002855  3.985706  -0.002  -0.139976  -0.003961  4.008634  -0.002  -0.08361  -0.127321  -0.002172  3.970817  -0.001
C  C58  1  0.66715864  0.84329852  0.01186967  1  0.140487  0.006675  3.716498  0.006  0.110671  0.009311  3.969904  0.008  0.11765  0.007969  3.98951  0.007  0.053304  0.105698  0.011265  3.957033  0.009
C  C59  1  0.33284721  0.15671270  0.98812678  1  0.14046  0.006636  3.716501  0.006  0.110634  0.009309  3.970013  0.008  0.117618  0.007964  3.989615  0.007  0.053305  0.10566  0.011262  3.957132  0.009
C  C60  1  0.05721227  0.10574929  0.79461505  1  0.635906  0.005965  3.915226  0.004  0.585804  0.010727  4.206201  0.008  0.619768  0.008534  4.200019  0.006  0.211549  0.562421  0.013249  4.209398  0.01
C  C61  1  0.94277751  0.89425624  0.20539206  1  0.635765  0.005959  3.915509  0.004  0.585605  0.010728  4.206584  0.008  0.619566  0.008535  4.200407  0.006  0.211347  0.562225  0.01325  4.209786  0.01
C  C62  1  0.14937532  0.23161152  0.75574155  1  -0.052357  -0.002974  3.81904  -0.002  -0.027022  -0.002311  4.0559  -0.002  -0.032163  -0.002766  4.076229  -0.002  -0.019227  -0.024063  -0.001753  4.043031  -0.001
C  C63  1  0.85062071  0.76839070  0.24426610  1  -0.052325  -0.003002  3.819324  -0.002  -0.026946  -0.002311  4.056115  -0.002  -0.032084  -0.002768  4.07645  -0.002  -0.019272  -0.023988  -0.001754  4.043257  -0.001
C  C64  1  0.07803005  0.35771136  0.77779192  1  -0.121261  0.002664  3.758995  0.003  -0.159165  0.003094  4.011151  0.003  -0.159335  0.002617  4.029392  0.003  -0.093434  -0.159853  0.004347  4.00072  0.004
C  C65  1  0.92197142  0.64229664  0.22221865  1  -0.121413  0.00268  3.759073  0.003  -0.159233  0.003094  4.011235  0.003  -0.159395  0.002617  4.029455  0.003  -0.093431  -0.159932  0.004347  4.000821  0.004
C  C66  1  0.16502197  0.47376953  0.74971745  1  -0.022174  -0.003597  3.781239  -0.003  0.00409  -0.002289  4.010096  -0.002  -0.000189  -0.002781  4.030129  -0.002  -0.014929  0.006217  -0.001622  3.997737  -0.002
C  C67  1  0.83498954  0.52623247  0.25028827  1  -0.021925  -0.003612  3.78085  -0.003  0.00425  -0.002287  4.009839  -0.002  -2.8e-05  -0.002783  4.029876  -0.002  -0.014867  0.006378  -0.001622  3.997478  -0.002
C  C68  1  0.32378718  0.46584006  0.69802809  1  -0.196128  0.003189  3.711788  0.003  -0.229512  0.00373  3.963532  0.003  -0.231841  0.0031  3.980696  0.003  -0.096978  -0.226916  0.004254  3.951821  0.003
C  C69  1  0.67621719  0.53416155  0.30197247  1  -0.196328  0.003203  3.711746  0.003  -0.229681  0.003728  3.96352  0.003  -0.232013  0.003103  3.980685  0.003  -0.097024  -0.227084  0.004254  3.951802  0.003
C  C70  1  0.39511388  0.33959057  0.67559551  1  0.25572  -0.001825  3.844469  -0.001  0.249112  -0.000646  4.11208  -0.001  0.259042  -0.001097  4.127295  -0.001  0.080802  0.241809  -0.000407  4.101558  0.0
C  C71  1  0.60488129  0.66040741  0.32440223  1  0.255862  -0.001837  3.844376  -0.001  0.249249  -0.000644  4.111984  -0.001  0.259173  -0.0011  4.127202  -0.001  0.080824  0.241957  -0.000406  4.10145  0.0
C  C72  1  0.30726749  0.22253525  0.70392596  1  -0.184467  0.003248  3.705496  0.003  -0.219151  0.003787  3.964549  0.003  -0.220599  0.003163  3.979943  0.003  -0.093564  -0.216993  0.004154  3.95357  0.003
C  C73  1  0.69272122  0.77746868  0.29607619  1  -0.184651  0.003287  3.705479  0.003  -0.219314  0.003787  3.964554  0.003  -0.220764  0.003165  3.979949  0.003  -0.093555  -0.217162  0.004154  3.953587  0.003
C  C74  1  0.08779770  0.60516725  0.77910791  1  0.6177  0.003731  3.939548  0.002  0.575601  0.007463  4.219939  0.005  0.608535  0.005948  4.216375  0.004  0.196079  0.552945  0.009205  4.221066  0.005
C  C75  1  0.91222405  0.39483976  0.22089643  1  0.617912  0.003728  3.939374  0.002  0.575807  0.007462  4.219802  0.005  0.60874  0.005948  4.216241  0.004  0.196156  0.553158  0.009204  4.220918  0.005
C  C76  1  0.64671153  0.43464923  0.60723117  1  0.102934  1.6e-05  3.626772  0.0  0.042663  5e-05  3.90128  0.0  0.050956  3.5e-05  3.907183  0.0  -0.067304  0.03706  6.4e-05  3.897187  0.0
C  C77  1  0.35328163  0.56534425  0.39275993  1  0.102784  2.9e-05  3.62703  0.0  0.042541  5.1e-05  3.901481  0.0  0.050832  3.4e-05  3.907393  0.0  -0.067389  0.036936  6.4e-05  3.897387  0.0
C  C78  1  0.81505747  0.39188294  0.55890010  1  -0.143282  -9e-06  3.701515  0.0  -0.183957  3.7e-05  3.965371  0.0  -0.185327  1.6e-05  3.978106  0.0  -0.170012  -0.182871  7.4e-05  3.956357  0.0
C  C79  1  0.18493512  0.60810397  0.44109524  1  -0.143145  -2.1e-05  3.701756  0.0  -0.183874  3.5e-05  3.965522  0.0  -0.185258  1.7e-05  3.97828  0.0  -0.169961  -0.18277  7.4e-05  3.956483  0.0
C  C80  1  0.91399927  0.51763094  0.52434895  1  -0.105657  2.7e-05  3.699605  0.0  -0.143766  1.2e-05  3.959623  0.0  -0.145589  1e-06  3.977106  0.0  -0.169593  -0.142398  2e-05  3.947637  0.0
C  C81  1  0.08599590  0.48235426  0.47565325  1  -0.105906  3e-05  3.699647  0.0  -0.143936  1.1e-05  3.959621  0.0  -0.145755  -0.0  3.977109  0.0  -0.169651  -0.142564  2e-05  3.947624  0.0
N  N82  1  0.70406973  0.84580844  0.90711177  1  -0.359921  0.0256  3.242044  0.011  -0.294904  0.029786  3.514226  0.01  -0.314306  0.02533  3.527191  0.007  -0.314892  -0.281098  0.034053  3.505674  0.013
N  N83  1  0.29593361  0.15420408  0.09288248  1  -0.35979  0.025596  3.242112  0.011  -0.294902  0.029784  3.514422  0.01  -0.314312  0.02533  3.527396  0.007  -0.314917  -0.281097  0.034052  3.505875  0.013
N  N84  1  0.79280811  0.86480605  0.69889723  1  -0.355529  0.029029  3.245092  0.016  -0.292903  0.03412  3.516365  0.017  -0.31205  0.02968  3.530675  0.013  -0.313767  -0.279272  0.038908  3.506564  0.021
N  N85  1  0.20720293  0.13517466  0.30110448  1  -0.355411  0.029097  3.245186  0.016  -0.292855  0.034118  3.516541  0.017  -0.311998  0.029679  3.530843  0.013  -0.313764  -0.279221  0.038908  3.506733  0.021
O  O86  1  0.08329563  0.01606973  0.73855678  1  -0.624153  0.03211  2.012387  0.02  -0.556755  0.035066  2.269527  0.018  -0.587838  0.031406  2.256484  0.015  -0.313018  -0.533579  0.038205  2.27871  0.02
O  O87  1  0.91668578  0.98393662  0.26145508  1  -0.624102  0.032112  2.012208  0.02  -0.556694  0.035066  2.269342  0.018  -0.587787  0.031407  2.256322  0.015  -0.312908  -0.533486  0.038203  2.27845  0.02
O  O88  1  0.95875318  0.09149203  0.88197675  1  -0.623623  0.006932  1.966554  0.004  -0.565534  0.013802  2.190623  0.01  -0.591822  0.011434  2.180823  0.008  -0.301402  -0.546175  0.015841  2.19645  0.012
O  O89  1  0.04123141  0.90851845  0.11803401  1  -0.623501  0.006934  1.967016  0.004  -0.565406  0.013804  2.191056  0.01  -0.591688  0.011434  2.181239  0.008  -0.301277  -0.546046  0.015842  2.196883  0.012
O  O90  1  0.15105508  0.72057819  0.73431014  1  -0.637686  0.027652  1.930199  0.022  -0.578853  0.032401  2.168505  0.025  -0.608698  0.02833  2.158338  0.021  -0.322392  -0.556191  0.03609  2.175349  0.028
O  O91  1  0.84896324  0.27942663  0.26568504  1  -0.637713  0.027659  1.930267  0.022  -0.578815  0.032402  2.168505  0.025  -0.608661  0.02833  2.15834  0.021  -0.322335  -0.556159  0.03609  2.175349  0.028
O  O92  1  0.96054354  0.59786432  0.84848535  1  -0.639255  0.022846  1.89776  0.019  -0.585481  0.030063  2.120956  0.025  -0.613621  0.025572  2.111352  0.02  -0.326889  -0.56378  0.034508  2.12622  0.029
O  O93  1  0.03948648  0.40214389  0.15152617  1  -0.639515  0.022836  1.897593  0.019  -0.585739  0.03006  2.120795  0.025  -0.613882  0.025568  2.111195  0.02  -0.32701  -0.564039  0.034504  2.126058  0.029
O  O94  1  0.04951240  0.76826382  0.97119787  1  -0.823245  0.029268  1.921671  0.016  -0.76174  0.038419  2.13781  0.022  -0.785395  0.034524  2.105655  0.019  -0.559826  -0.744048  0.042287  2.160877  0.025
O  O95  1  0.95049065  0.23173955  0.02880639  1  -0.823507  0.029269  1.921422  0.016  -0.761841  0.038419  2.137725  0.022  -0.785514  0.034524  2.105537  0.019  -0.559848  -0.744152  0.042285  2.160787  0.025
O  O96  1  0.55064206  0.31937739  0.62897341  1  -0.299821  -0.000283  2.292067  0.0  -0.231327  -0.000158  2.530836  0.0  -0.24862  -0.00024  2.531472  0.0  -0.189834  -0.219053  -0.00015  2.52974  0.0
O  O97  1  0.44934714  0.68062033  0.37101747  1  -0.299852  -0.000287  2.292024  0.0  -0.231376  -0.000158  2.530797  0.0  -0.248657  -0.00024  2.531429  0.0  -0.189882  -0.219105  -0.00015  2.529702  0.0
