# generated using pymatgen
data_ZnH6C10INO4
_symmetry_space_group_name_H-M   'P 1'
_cell_length_a   9.78961872
_cell_length_b   11.28233915
_cell_length_c   13.30012306
_cell_angle_alpha   95.03216484
_cell_angle_beta   105.94679796
_cell_angle_gamma   100.13434117
_symmetry_Int_Tables_number   1
_chemical_formula_structural   ZnH6C10INO4
_chemical_formula_sum   'Zn2 H12 C20 I2 N2 O8'
_cell_volume   1375.98725104
_cell_formula_units_Z   2
loop_
 _symmetry_equiv_pos_site_id
 _symmetry_equiv_pos_as_xyz
  1  'x, y, z'
loop_
 _atom_site_type_symbol
 _atom_site_label
 _atom_site_symmetry_multiplicity
 _atom_site_fract_x
 _atom_site_fract_y
 _atom_site_fract_z
 _atom_site_occupancy
 _atom_site_pbe_bader_charge
 _atom_site_pbe_bader_spin_density
 _atom_site_pbe_cm5_charge
 _atom_site_pbe_ddec_charge
 _atom_site_pbe_ddec_spin_density
 _atom_site_pbe_ddec_sum_bond_order
 _atom_site_pbe_magmom
Zn  Zn0  1  0.65003614  0.50390508  0.54766236  1  1.293949  0  0.665639  0.86355  0  2.388208  0
Zn  Zn1  1  0.34836570  0.49655626  0.45980608  1  1.29169  0  0.666155  0.864103  0  2.386315  0
H  H2  1  0.36983363  0.58320395  0.15020674  1  0.115264  0  0.111128  0.12116  0  0.98666  0
H  H3  1  0.14111283  0.47750278  0.58593105  1  0.181387  0  0.126536  0.100036  0  1.008801  0
H  H4  1  0.93196390  0.48125805  0.64228187  1  0.427187  0  0.316259  0.288076  0  0.907786  0
H  H5  1  0.06631545  0.51939604  0.36542233  1  0.446031  0  0.316186  0.287798  0  0.907619  0
H  H6  1  0.62897462  0.41603404  0.85718994  1  0.083837  0  0.110972  0.12145  0  0.984862  0
H  H7  1  0.30939916  0.65901927  0.97588143  1  0.086149  0  0.104378  0.117777  0  0.997743  0
H  H8  1  0.68973073  0.34047452  0.03189739  1  0.068654  0  0.104233  0.117115  0  0.99835  0
H  H9  1  0.37119498  0.88612657  0.47546086  1  0.108091  0  0.105773  0.106664  0  0.983215  0
H  H10  1  0.62681024  0.11472873  0.53532347  1  0.11811  0  0.105412  0.105664  0  0.984932  0
H  H11  1  0.70434103  0.91373350  0.54977939  1  0.048004  0  0.106432  0.124761  0  0.985949  0
H  H12  1  0.29371021  0.08701459  0.45851795  1  0.082448  0  0.106318  0.124671  0  0.985163  0
H  H13  1  0.85749925  0.52322660  0.42181029  1  0.168769  0  0.126801  0.099737  0  1.006781  0
C  C14  1  0.44145313  0.26530547  0.49267638  1  1.58445  0  0.204862  0.632711  0  4.183921  0
C  C15  1  0.62188524  0.39567993  0.05831464  1  0.033026  0  -0.095507  -0.173397  0  3.984044  0
C  C16  1  0.38948451  0.60245330  0.84839139  1  -0.26547  0  -0.045895  0.040885  0  3.902215  0
C  C17  1  0.60966131  0.39718398  0.15934278  1  -0.253497  0  -0.046126  0.038775  0  3.904221  0
C  C18  1  0.55778789  0.46755688  0.88369678  1  -0.013894  0  -0.073698  -0.125343  0  3.913543  0
C  C19  1  0.44127017  0.53188819  0.12382030  1  -0.038237  0  -0.074373  -0.126528  0  3.912654  0
C  C20  1  0.54581869  0.46495494  0.98701826  1  -0.050116  0  -0.00526  0.087467  0  4.015003  0
C  C21  1  0.45338124  0.53452408  0.02056360  1  0.044204  0  -0.004223  0.090284  0  4.013254  0
C  C22  1  0.40864861  0.13101987  0.48566493  1  -0.057599  0  -0.090916  -0.224917  0  3.880221  0
C  C23  1  0.58941263  0.86967011  0.52339859  1  -0.022162  0  -0.09287  -0.227344  0  3.882284  0
C  C24  1  0.51348794  0.06560637  0.50915771  1  -0.124695  0  -0.07772  -0.033681  0  4.026361  0
C  C25  1  0.55683906  0.73531039  0.51555449  1  1.585389  0  0.205661  0.633681  0  4.182164  0
C  C26  1  0.48451579  0.93515480  0.50102119  1  -0.034758  0  -0.076322  -0.032871  0  4.026535  0
C  C27  1  0.07433322  0.49423257  0.50971599  1  0.633456  0  0.105276  0.156822  0  3.899695  0
C  C28  1  0.92421762  0.50652917  0.49806613  1  0.678158  0  0.105419  0.158235  0  3.898678  0
C  C29  1  0.49564175  0.52246410  0.70347158  1  1.604689  0  0.211943  0.600329  0  4.184679  0
C  C30  1  0.50301082  0.47731531  0.30410972  1  1.59528  0  0.211979  0.60135  0  4.180423  0
C  C31  1  0.51832396  0.46627748  0.19417284  1  0.012773  0  -0.016446  -0.048507  0  3.947564  0
C  C32  1  0.48063606  0.53320436  0.81348773  1  0.021649  0  -0.017292  -0.050096  0  3.951901  0
C  C33  1  0.37730966  0.60394552  0.94941654  1  0.019822  0  -0.096885  -0.176786  0  3.982794  0
I  I34  1  0.72352074  0.28370557  0.25403190  1  0.100119  0  0.065799  -0.038882  0  1.410344  0
I  I35  1  0.27608819  0.71609321  0.75357474  1  0.102449  0  0.066723  -0.038679  0  1.408384  0
N  N36  1  0.13323420  0.50344582  0.43502136  1  -1.183564  0  -0.430276  -0.371781  0  3.225028  0
N  N37  1  0.86514442  0.49720830  0.57266682  1  -1.162325  0  -0.430005  -0.37205  0  3.227166  0
O  O38  1  0.57388843  0.32132597  0.52962976  1  -1.172965  0  -0.326523  -0.565112  0  2.324252  0
O  O39  1  0.42417470  0.67938168  0.48083681  1  -1.173815  0  -0.327114  -0.566147  0  2.325119  0
O  O40  1  0.33225233  0.31455263  0.46028497  1  -1.15838  0  -0.327436  -0.552423  0  2.27291  0
O  O41  1  0.66643988  0.68579242  0.54499935  1  -1.151635  0  -0.327645  -0.553017  0  2.272112  0
O  O42  1  0.62235060  0.52209949  0.69608674  1  -1.153811  0  -0.32025  -0.538364  0  2.270525  0
O  O43  1  0.37701516  0.48111463  0.31150185  1  -1.157147  0  -0.319424  -0.538357  0  2.269901  0
O  O44  1  0.38040617  0.51094635  0.62743279  1  -1.176213  0  -0.313257  -0.563732  0  2.379507  0
O  O45  1  0.61745723  0.48576498  0.38019817  1  -1.184754  0  -0.314421  -0.56509  0  2.382455  0
