# generated using pymatgen
data_MnH4C5N2O3
_symmetry_space_group_name_H-M   'P 1'
_cell_length_a   14.21674814
_cell_length_b   13.93856045
_cell_length_c   15.03918453
_cell_angle_alpha   104.68549224
_cell_angle_beta   90.00009410
_cell_angle_gamma   89.99976637
_symmetry_Int_Tables_number   1
_chemical_formula_structural   MnH4C5N2O3
_chemical_formula_sum   'Mn12 H48 C60 N24 O36'
_cell_volume   2882.82330613
_cell_formula_units_Z   12
loop_
 _symmetry_equiv_pos_site_id
 _symmetry_equiv_pos_as_xyz
  1  'x, y, z'
loop_
 _atom_site_type_symbol
 _atom_site_label
 _atom_site_symmetry_multiplicity
 _atom_site_fract_x
 _atom_site_fract_y
 _atom_site_fract_z
 _atom_site_occupancy
 _atom_site_pbe_bader_charge
 _atom_site_pbe_bader_spin_density
 _atom_site_pbe_cm5_charge
 _atom_site_pbe_ddec_charge
 _atom_site_pbe_ddec_spin_density
 _atom_site_pbe_ddec_sum_bond_order
 _atom_site_pbe_magmom
Mn  Mn0  1  0.99999983  0.50000054  0.00000044  1  1.498227  4.520233  0.607149  0.874409  4.668898  2.563849  4.459
Mn  Mn1  1  0.49999844  0.49999985  0.50000125  1  1.498192  4.520251  0.607143  0.874356  4.668911  2.563938  4.459
Mn  Mn2  1  0.14028671  0.33345602  0.84232721  1  1.495273  4.578766  0.593866  0.941705  4.703364  2.339534  4.495
Mn  Mn3  1  0.64028701  0.66654614  0.65767709  1  1.495205  4.578781  0.593849  0.94164  4.703362  2.339608  4.495
Mn  Mn4  1  0.85971439  0.66654294  0.15767511  1  1.495246  4.578772  0.593868  0.941684  4.703363  2.339543  4.495
Mn  Mn5  1  0.35971410  0.33345430  0.34232560  1  1.495221  4.578771  0.593839  0.941644  4.70337  2.339628  4.495
Mn  Mn6  1  0.96950476  0.24643338  0.98100566  1  1.464096  4.544274  0.636974  0.883925  4.659465  2.405459  4.433
Mn  Mn7  1  0.46950645  0.75356751  0.51899287  1  1.46407  4.544273  0.636988  0.883922  4.659474  2.405427  4.433
Mn  Mn8  1  0.03049423  0.75356410  0.01899498  1  1.464086  4.544293  0.636974  0.883924  4.659461  2.405426  4.433
Mn  Mn9  1  0.53049395  0.24643444  0.48100685  1  1.46408  4.544292  0.636969  0.883923  4.659483  2.405392  4.433
Mn  Mn10  1  0.00000086  0.00000035  0.00000017  1  1.499572  4.568623  0.623283  0.902319  4.708845  2.327065  4.48
Mn  Mn11  1  0.49999885  0.99999867  0.50000115  1  1.499458  4.56863  0.62327  0.902305  4.708828  2.327186  4.48
H  H12  1  0.10869506  0.35302164  0.02745207  1  0.605127  0.006592  0.294172  0.37279  0.005377  0.956548  0.008
H  H13  1  0.60869949  0.64697657  0.47255181  1  0.605143  0.006593  0.294251  0.372824  0.005377  0.956458  0.008
H  H14  1  0.89130112  0.64697879  0.97255062  1  0.605322  0.006588  0.294225  0.372809  0.005376  0.956505  0.008
H  H15  1  0.39130091  0.35301792  0.52745077  1  0.60521  0.006592  0.294203  0.372788  0.005378  0.956559  0.008
H  H16  1  0.29813667  0.25813656  0.92280376  1  0.613166  0.003327  0.332631  0.40202  0.002215  0.879504  0.001
H  H17  1  0.79813653  0.74186574  0.57719550  1  0.613121  0.003327  0.332597  0.401963  0.002215  0.879528  0.001
H  H18  1  0.70186654  0.74187126  0.07720469  1  0.613164  0.003327  0.332612  0.402036  0.002214  0.879467  0.001
H  H19  1  0.20186809  0.25813544  0.42280669  1  0.613124  0.003327  0.33259  0.401962  0.002215  0.879533  0.001
H  H20  1  0.31726601  0.37195926  0.94434332  1  0.622427  0.003452  0.337236  0.408584  0.002255  0.869818  0.001
H  H21  1  0.81726488  0.62804297  0.55565596  1  0.622441  0.003452  0.337222  0.408535  0.002255  0.869839  0.001
H  H22  1  0.68273720  0.62804861  0.05565917  1  0.622542  0.00345  0.337156  0.408398  0.002254  0.869874  0.001
H  H23  1  0.18273904  0.37195750  0.44434274  1  0.622465  0.003451  0.337182  0.408454  0.002254  0.869882  0.001
H  H24  1  0.26912906  0.28970488  0.67760657  1  0.666492  0.002303  0.289395  0.385441  0.001502  0.957361  0.003
H  H25  1  0.76912947  0.71029827  0.82239485  1  0.666804  0.0023  0.289456  0.385547  0.001502  0.957214  0.003
H  H26  1  0.73087064  0.71029632  0.32239298  1  0.666449  0.002304  0.289404  0.385431  0.001503  0.957355  0.003
H  H27  1  0.23087305  0.28970441  0.17760704  1  0.666586  0.002302  0.28942  0.385509  0.001502  0.957248  0.003
H  H28  1  0.15816557  0.27843889  0.65604858  1  0.598909  0.003495  0.327144  0.399593  0.001964  0.881416  0.002
H  H29  1  0.65816667  0.72156468  0.84395542  1  0.598864  0.003496  0.327164  0.399606  0.001964  0.881457  0.002
H  H30  1  0.84183342  0.72156379  0.34395199  1  0.598909  0.003496  0.327157  0.399591  0.001964  0.881496  0.002
H  H31  1  0.34183654  0.27843724  0.15604828  1  0.598874  0.003496  0.32714  0.399596  0.001964  0.881472  0.002
H  H32  1  0.25047207  0.81360347  0.92980229  1  0.071807  0.000599  0.109984  0.123144  0.00011  0.999608  0.0
H  H33  1  0.75047483  0.18639825  0.57020075  1  0.071868  0.000599  0.109972  0.123121  0.00011  0.999599  0.0
H  H34  1  0.74952904  0.18639476  0.07019720  1  0.071777  0.000599  0.109965  0.123105  0.00011  0.999617  0.0
H  H35  1  0.24952838  0.81360518  0.42979934  1  0.071771  0.000599  0.109933  0.123066  0.00011  0.999609  0.0
H  H36  1  0.38733104  0.78165647  0.82049967  1  0.097501  0.000466  0.104723  0.111191  -6.6e-05  0.998678  0.0
H  H37  1  0.88733598  0.21834476  0.67949682  1  0.097644  0.000466  0.104735  0.111256  -6.6e-05  0.998655  0.0
H  H38  1  0.61267006  0.21834029  0.17949814  1  0.097489  0.000466  0.104744  0.111201  -6.6e-05  0.998697  0.0
H  H39  1  0.11266653  0.78165646  0.32050074  1  0.097599  0.000466  0.104728  0.11123  -6.6e-05  0.99871  0.0
H  H40  1  0.32964190  0.46794183  0.74117211  1  0.114003  0.000763  0.10912  0.129277  -7.2e-05  1.011908  0.0
H  H41  1  0.82964712  0.53206039  0.75882187  1  0.114016  0.000764  0.109171  0.12935  -7.2e-05  1.011833  0.0
H  H42  1  0.67035429  0.53205644  0.25882274  1  0.114047  0.000764  0.109169  0.129326  -7.2e-05  1.011888  0.0
H  H43  1  0.17035680  0.46794082  0.24117635  1  0.114025  0.000764  0.109156  0.12936  -7.2e-05  1.011841  0.0
H  H44  1  0.12999006  0.84738421  0.81756574  1  0.094939  0.000506  0.105842  0.117482  -0.000482  1.034025  0.0
H  H45  1  0.62999386  0.15261430  0.68243434  1  0.095036  0.000506  0.10585  0.11753  -0.000482  1.034009  0.0
H  H46  1  0.87000753  0.15261107  0.18243171  1  0.095007  0.000506  0.105851  0.117515  -0.000482  1.03401  0.0
H  H47  1  0.37000654  0.84738247  0.31756214  1  0.095577  0.000506  0.105846  0.117501  -0.000482  1.03403  0.0
H  H48  1  0.24998090  0.80850460  0.69090178  1  0.139514  0.000358  0.105227  0.113961  -0.000254  1.01129  0.0
H  H49  1  0.74998406  0.19149345  0.80909705  1  0.139571  0.000358  0.105258  0.113946  -0.000254  1.011359  0.0
H  H50  1  0.75001598  0.19149143  0.30909519  1  0.139387  0.000358  0.105249  0.113973  -0.000254  1.011325  0.0
H  H51  1  0.25001283  0.80850700  0.19090431  1  0.139559  0.000358  0.105252  0.113938  -0.000254  1.011379  0.0
H  H52  1  0.26698828  0.11499327  0.68399063  1  0.10232  0.000818  0.103458  0.107166  -1.2e-05  1.05701  0.0
H  H53  1  0.76699009  0.88500544  0.81600971  1  0.102266  0.000818  0.103467  0.107176  -1.2e-05  1.056996  0.0
H  H54  1  0.73300650  0.88500349  0.31600783  1  0.102555  0.000819  0.103475  0.107183  -1.2e-05  1.056981  0.0
H  H55  1  0.23300610  0.11499499  0.18399364  1  0.102602  0.000818  0.103474  0.107187  -1.2e-05  1.057027  0.0
H  H56  1  0.08448470  0.16445574  0.19237515  1  0.083625  0.003664  0.11598  0.023307  0.001672  0.980721  0.001
H  H57  1  0.58448176  0.83555150  0.30762688  1  0.082548  0.003667  0.115954  0.023256  0.001672  0.98059  0.001
H  H58  1  0.91552063  0.83555284  0.80763150  1  0.083864  0.003663  0.115992  0.02331  0.001672  0.980797  0.001
H  H59  1  0.41551653  0.16444676  0.69236929  1  0.083957  0.003663  0.115951  0.023248  0.001672  0.980684  0.001
C  C60  1  0.23935956  0.55852803  0.84791743  1  0.378341  0.009892  0.092236  0.123212  0.006646  4.069439  0.007
C  C61  1  0.73936567  0.44147377  0.65208229  1  0.378168  0.009893  0.092258  0.12319  0.006646  4.069501  0.007
C  C62  1  0.76063803  0.44146950  0.15207790  1  0.378295  0.009892  0.092167  0.123151  0.006646  4.069511  0.007
C  C63  1  0.26063896  0.55852818  0.34791810  1  0.378444  0.009891  0.092241  0.123172  0.006646  4.069491  0.007
C  C64  1  0.21533422  0.65638719  0.89797332  1  0.39641  0.012201  0.097528  0.130998  0.008631  4.055555  0.009
C  C65  1  0.71533430  0.34361320  0.60202735  1  0.396177  0.0122  0.097522  0.130974  0.00863  4.055488  0.009
C  C66  1  0.78466689  0.34361178  0.10202635  1  0.396187  0.012201  0.097616  0.131182  0.008631  4.055392  0.009
C  C67  1  0.28466751  0.65638875  0.39797238  1  0.396117  0.012202  0.097536  0.130994  0.008631  4.055389  0.009
C  C68  1  0.26829482  0.73901563  0.89024955  1  0.003029  0.00168  -0.088683  -0.153873  0.001195  3.996258  0.001
C  C69  1  0.76829666  0.26098680  0.60974970  1  0.00298  0.001681  -0.088699  -0.153782  0.001196  3.996155  0.001
C  C70  1  0.73170488  0.26098337  0.10974681  1  0.002956  0.001681  -0.088651  -0.153844  0.001195  3.996117  0.001
C  C71  1  0.23170445  0.73901515  0.39025002  1  0.003043  0.00168  -0.088628  -0.153704  0.001195  3.996178  0.001
C  C72  1  0.34351032  0.72087418  0.82992955  1  -0.035148  0.006639  -0.089952  -0.105675  0.005012  4.002655  0.004
C  C73  1  0.84351500  0.27912647  0.67006806  1  -0.035253  0.006639  -0.090004  -0.105884  0.005012  4.002496  0.004
C  C74  1  0.65649008  0.27912259  0.17006693  1  -0.035138  0.006639  -0.090028  -0.105751  0.005012  4.002633  0.004
C  C75  1  0.15648822  0.72087474  0.32993082  1  -0.03522  0.00664  -0.089975  -0.105848  0.005013  4.002604  0.004
C  C76  1  0.36438303  0.62384356  0.77571438  1  0.015544  0.007505  -0.022312  -0.040763  0.005372  4.002404  0.004
C  C77  1  0.86438953  0.37615928  0.72427913  1  0.01488  0.007506  -0.022227  -0.040636  0.005372  4.002183  0.004
C  C78  1  0.63561385  0.37615398  0.22427896  1  0.015745  0.007505  -0.022218  -0.040571  0.005372  4.002148  0.004
C  C79  1  0.13561299  0.62384195  0.27571842  1  0.015527  0.007505  -0.022284  -0.040635  0.005372  4.002281  0.004
C  C80  1  0.31308666  0.54148689  0.78391607  1  -0.046777  0.007051  -0.084153  -0.168634  0.005041  3.94464  0.004
C  C81  1  0.81309000  0.45851317  0.71607802  1  -0.046449  0.007049  -0.084254  -0.168783  0.00504  3.944878  0.004
C  C82  1  0.68691163  0.45851138  0.21607877  1  -0.046609  0.00705  -0.084211  -0.168809  0.005041  3.944659  0.004
C  C83  1  0.18691181  0.54148804  0.28392020  1  -0.046649  0.00705  -0.084203  -0.168787  0.005041  3.944757  0.004
C  C84  1  0.44166931  0.61037580  0.70594997  1  1.570684  0.018552  0.225752  0.601202  0.019397  4.17619  0.016
C  C85  1  0.94167517  0.38962672  0.79404426  1  1.571055  0.01855  0.225666  0.601239  0.019396  4.176351  0.016
C  C86  1  0.55832969  0.38962392  0.29404922  1  1.570614  0.018549  0.22572  0.601163  0.019393  4.17627  0.016
C  C87  1  0.05832664  0.61037672  0.20595450  1  1.570731  0.018553  0.225661  0.601056  0.019397  4.176597  0.016
C  C88  1  0.17287338  0.08067775  0.78647273  1  0.420227  0.009074  0.089405  0.116647  0.006341  4.06763  0.006
C  C89  1  0.67287488  0.91932208  0.71352707  1  0.420301  0.009074  0.089442  0.1167  0.006342  4.067536  0.006
C  C90  1  0.82712350  0.91931827  0.21352490  1  0.420856  0.009074  0.089406  0.116688  0.006342  4.0677  0.006
C  C91  1  0.32712412  0.08067837  0.28647362  1  0.420379  0.009075  0.089392  0.116618  0.006342  4.067642  0.006
C  C92  1  0.13417625  0.00474543  0.82307546  1  0.380194  0.011216  0.099813  0.138851  0.008202  4.053034  0.008
C  C93  1  0.63417738  0.99525529  0.67692582  1  0.380592  0.011216  0.099796  0.138814  0.008202  4.053018  0.008
C  C94  1  0.86582063  0.99525131  0.17692500  1  0.380306  0.011215  0.099833  0.138851  0.008201  4.052924  0.008
C  C95  1  0.36582092  0.00474220  0.32307416  1  0.380623  0.011217  0.099853  0.13891  0.008203  4.052839  0.008
C  C96  1  0.16006079  0.90487343  0.78908229  1  0.015985  0.000876  -0.090808  -0.156562  0.000549  3.999489  0.0
C  C97  1  0.66006276  0.09512793  0.71091852  1  0.015453  0.000876  -0.09079  -0.15663  0.000549  3.999488  0.0
C  C98  1  0.83993539  0.09512556  0.21091605  1  0.015381  0.000877  -0.090743  -0.156554  0.000549  3.999447  0.0
C  C99  1  0.33993342  0.90487108  0.28907717  1  0.014924  0.000876  -0.090795  -0.156559  0.000549  3.999619  0.0
C  C100  1  0.22563062  0.88407731  0.71920212  1  -0.123945  0.006343  -0.089348  -0.09754  0.004666  3.990308  0.004
C  C101  1  0.72563474  0.11592082  0.78079736  1  -0.12401  0.006343  -0.089389  -0.097461  0.004665  3.990322  0.004
C  C102  1  0.77436345  0.11591721  0.28079648  1  -0.123517  0.006342  -0.0895  -0.097657  0.004664  3.99061  0.004
C  C103  1  0.27436074  0.88408037  0.21920351  1  -0.124501  0.006342  -0.089424  -0.097554  0.004664  3.990705  0.004
C  C104  1  0.26466116  0.95941096  0.68175126  1  0.026336  0.005941  -0.025246  -0.046185  0.004205  3.994068  0.003
C  C105  1  0.76466142  0.04058776  0.81824842  1  0.026339  0.005941  -0.025266  -0.046232  0.004205  3.994084  0.003
C  C106  1  0.73533642  0.04058432  0.31824552  1  0.026131  0.005942  -0.025203  -0.046141  0.004205  3.994233  0.003
C  C107  1  0.23533687  0.95941121  0.18175192  1  0.02676  0.005941  -0.025229  -0.046202  0.004206  3.994079  0.003
C  C108  1  0.23808378  0.05825454  0.71410960  1  -0.064105  0.009184  -0.087151  -0.168383  0.006841  3.960638  0.005
C  C109  1  0.73808530  0.94174428  0.78589072  1  -0.064132  0.009183  -0.087155  -0.168382  0.00684  3.960696  0.005
C  C110  1  0.76191170  0.94174148  0.28588802  1  -0.064586  0.009182  -0.087167  -0.168419  0.006839  3.960756  0.005
C  C111  1  0.26191017  0.05825764  0.21411232  1  -0.064722  0.009181  -0.087205  -0.168445  0.006839  3.960754  0.005
C  C112  1  0.33790505  0.92960861  0.60848347  1  1.566342  0.021513  0.223658  0.596049  0.02123  4.178955  0.019
C  C113  1  0.83790603  0.07039053  0.89151975  1  1.566378  0.021513  0.223571  0.596035  0.021231  4.178925  0.019
C  C114  1  0.66209324  0.07039332  0.39151825  1  1.566401  0.021511  0.223594  0.595993  0.021229  4.178928  0.019
C  C115  1  0.16209227  0.92960695  0.10848089  1  1.566395  0.021508  0.223631  0.596103  0.021227  4.178803  0.019
C  C116  1  0.07337303  0.20104047  0.13592883  1  1.557645  0.017837  0.165294  0.502418  0.017823  4.178194  0.014
C  C117  1  0.57338160  0.79895271  0.36407111  1  1.558869  0.017826  0.165334  0.502586  0.017818  4.178462  0.014
C  C118  1  0.92663229  0.79896962  0.86407486  1  1.558016  0.017839  0.16537  0.502568  0.017826  4.177824  0.014
C  C119  1  0.42662654  0.20103440  0.63592569  1  1.557615  0.01784  0.165376  0.502641  0.017825  4.177892  0.014
N  N120  1  0.13760624  0.64860355  0.94934481  1  -0.738899  0.068046  -0.223441  -0.242813  0.043504  3.416587  0.023
N  N121  1  0.63760620  0.35139567  0.55065678  1  -0.738926  0.068041  -0.22342  -0.242791  0.043501  3.416682  0.023
N  N122  1  0.86239346  0.35139618  0.05065371  1  -0.738938  0.068048  -0.223428  -0.24284  0.043503  3.41668  0.023
N  N123  1  0.36239772  0.64860556  0.44934078  1  -0.73877  0.06804  -0.223386  -0.242697  0.043502  3.416604  0.023
N  N124  1  0.11794017  0.55232087  0.93337986  1  -0.196262  0.070402  -0.099498  -0.020344  0.048502  3.524138  0.03
N  N125  1  0.61793978  0.44767769  0.56662087  1  -0.19632  0.070417  -0.099498  -0.020385  0.048504  3.524234  0.03
N  N126  1  0.88205952  0.44767811  0.06661981  1  -0.196276  0.070403  -0.099499  -0.020395  0.048505  3.5243  0.03
N  N127  1  0.38206414  0.55232356  0.43337403  1  -0.196293  0.070393  -0.099504  -0.020448  0.048498  3.524288  0.03
N  N128  1  0.17673849  0.49540250  0.87366830  1  -0.711918  0.06795  -0.21674  -0.252495  0.046329  3.378555  0.028
N  N129  1  0.67673797  0.50459657  0.62633133  1  -0.711559  0.067944  -0.216725  -0.252401  0.046325  3.378475  0.028
N  N130  1  0.82326191  0.50459574  0.12633120  1  -0.711866  0.06795  -0.216765  -0.25247  0.046328  3.37854  0.028
N  N131  1  0.32326454  0.49540465  0.37366623  1  -0.711877  0.067947  -0.216773  -0.252427  0.046328  3.378609  0.028
N  N132  1  0.13445729  0.16876242  0.83530401  1  -0.720638  0.063776  -0.215353  -0.252014  0.04467  3.38038  0.029
N  N133  1  0.63445694  0.83123754  0.66469842  1  -0.720712  0.063775  -0.215343  -0.252036  0.044667  3.380368  0.029
N  N134  1  0.86554311  0.83123357  0.16469693  1  -0.711597  0.063745  -0.215396  -0.252114  0.044669  3.380529  0.029
N  N135  1  0.36554065  0.16876362  0.33530644  1  -0.720707  0.063777  -0.215296  -0.251946  0.044667  3.380418  0.029
N  N136  1  0.07595526  0.14647098  0.89635313  1  -0.170528  0.064262  -0.09714  -0.030135  0.042405  3.493335  0.031
N  N137  1  0.57595542  0.85352921  0.60364993  1  -0.170472  0.064262  -0.097181  -0.030112  0.042404  3.493267  0.031
N  N138  1  0.92404655  0.85352648  0.10364950  1  -0.179774  0.064285  -0.097183  -0.030098  0.042403  3.493364  0.031
N  N139  1  0.42404428  0.14647123  0.39635342  1  -0.170231  0.06426  -0.097193  -0.030229  0.042406  3.493358  0.031
N  N140  1  0.07378829  0.04952883  0.89146718  1  -0.755907  0.059109  -0.22358  -0.240525  0.03883  3.416452  0.021
N  N141  1  0.57378948  0.95047139  0.60853389  1  -0.755788  0.0591  -0.223574  -0.240535  0.038833  3.416321  0.021
N  N142  1  0.92621141  0.95046792  0.10853328  1  -0.755754  0.059108  -0.223518  -0.240483  0.038831  3.416417  0.021
N  N143  1  0.42621163  0.04952758  0.39146645  1  -0.755826  0.059108  -0.223542  -0.240458  0.038829  3.41619  0.021
O  O144  1  0.07009140  0.35622097  0.97425710  1  -1.300088  0.216717  -0.557734  -0.854458  0.16494  2.254529  0.108
O  O145  1  0.57009086  0.64378071  0.52574764  1  -1.300083  0.216709  -0.557807  -0.854459  0.164942  2.254617  0.108
O  O146  1  0.92990618  0.64377873  0.02574408  1  -1.300263  0.216723  -0.557772  -0.854479  0.164946  2.254688  0.108
O  O147  1  0.42990532  0.35622046  0.47425655  1  -1.300148  0.216712  -0.557745  -0.854411  0.164933  2.254533  0.108
O  O148  1  0.00228366  0.16922897  0.08321456  1  -1.233171  0.112178  -0.305671  -0.528165  0.078547  2.427904  0.048
O  O149  1  0.50228023  0.83077489  0.41678652  1  -1.233205  0.112207  -0.305716  -0.528323  0.07857  2.427463  0.048
O  O150  1  0.99771885  0.83077590  0.91679119  1  -1.233078  0.112166  -0.305667  -0.528206  0.078545  2.427881  0.048
O  O151  1  0.49771806  0.16922485  0.58321068  1  -1.232977  0.112176  -0.3057  -0.528266  0.078552  2.427714  0.048
O  O152  1  0.12808161  0.26889598  0.12746073  1  -1.185144  0.021671  -0.296914  -0.504613  0.013683  2.233975  0.014
O  O153  1  0.62807076  0.73111411  0.37253540  1  -1.185076  0.021664  -0.296888  -0.504543  0.013678  2.234923  0.014
O  O154  1  0.87192161  0.73110671  0.87253983  1  -1.185766  0.021679  -0.29698  -0.504737  0.013687  2.233626  0.014
O  O155  1  0.37192261  0.26889159  0.62745991  1  -1.185531  0.021674  -0.296945  -0.504672  0.013684  2.233961  0.014
O  O156  1  0.36618032  0.83994587  0.59247316  1  -1.206395  0.08642  -0.315247  -0.556678  0.058487  2.388516  0.041
O  O157  1  0.86618307  0.16005468  0.90752579  1  -1.206404  0.086427  -0.315222  -0.556642  0.058493  2.388507  0.041
O  O158  1  0.63381586  0.16005162  0.40752681  1  -1.206406  0.086417  -0.315232  -0.55662  0.058486  2.388658  0.041
O  O159  1  0.13381874  0.83994579  0.09247291  1  -1.206446  0.086421  -0.315255  -0.556694  0.058489  2.388536  0.041
O  O160  1  0.36793145  0.99310726  0.56734471  1  -1.20209  0.071119  -0.315235  -0.572981  0.04973  2.320927  0.036
O  O161  1  0.86792571  0.00689988  0.93266514  1  -1.202177  0.071122  -0.315207  -0.573068  0.04973  2.321039  0.036
O  O162  1  0.63206966  0.00689390  0.43266014  1  -1.202171  0.071123  -0.315203  -0.573002  0.049733  2.320884  0.036
O  O163  1  0.13207047  0.99310203  0.06733856  1  -1.202153  0.071129  -0.315189  -0.572987  0.04973  2.320809  0.036
O  O164  1  0.43190766  0.54170371  0.63302743  1  -1.207718  0.071626  -0.305461  -0.556769  0.050789  2.311226  0.036
O  O165  1  0.93191126  0.45829809  0.86696860  1  -1.207628  0.071624  -0.305377  -0.556749  0.050788  2.311154  0.036
O  O166  1  0.56809767  0.45828708  0.36697359  1  -1.207649  0.071613  -0.305402  -0.556743  0.050788  2.311395  0.036
O  O167  1  0.06809055  0.54170238  0.13303010  1  -1.208037  0.071627  -0.305405  -0.556717  0.05079  2.311218  0.036
O  O168  1  0.51154454  0.67037631  0.72502776  1  -1.215499  0.081406  -0.322995  -0.579676  0.056273  2.301368  0.04
O  O169  1  0.01154977  0.32962789  0.77497085  1  -1.215608  0.08141  -0.322998  -0.579762  0.056273  2.301474  0.04
O  O170  1  0.48845164  0.32962490  0.27497112  1  -1.215533  0.081404  -0.323056  -0.579776  0.056275  2.301323  0.04
O  O171  1  0.98845696  0.67038225  0.22502687  1  -1.215266  0.081405  -0.322966  -0.579644  0.056272  2.301602  0.04
O  O172  1  0.29500502  0.31532408  0.89677155  1  -1.216668  0.048272  -0.539231  -0.729963  0.034519  2.037185  0.018
O  O173  1  0.79500655  0.68467748  0.60322886  1  -1.216632  0.04827  -0.539183  -0.729838  0.034514  2.037198  0.018
O  O174  1  0.70499327  0.68468079  0.10323420  1  -1.216778  0.048275  -0.539129  -0.729762  0.034514  2.037152  0.018
O  O175  1  0.20499174  0.31532076  0.39676930  1  -1.216676  0.048271  -0.539148  -0.729756  0.034515  2.037239  0.018
O  O176  1  0.20388277  0.30597140  0.70362786  1  -1.267954  0.057715  -0.562779  -0.758049  0.041721  2.105965  0.024
O  O177  1  0.70388389  0.69403423  0.79637472  1  -1.268229  0.057725  -0.56286  -0.758159  0.041725  2.105964  0.024
O  O178  1  0.79612115  0.69402978  0.29637434  1  -1.267936  0.057717  -0.56275  -0.758005  0.041721  2.106067  0.024
O  O179  1  0.29611932  0.30596844  0.20362783  1  -1.267936  0.057717  -0.562789  -0.758099  0.041725  2.105982  0.024
