# generated using pymatgen
data_MgH6C11NO3
_symmetry_space_group_name_H-M   'P 1'
_cell_length_a   6.85814360
_cell_length_b   35.17799310
_cell_length_c   35.17665734
_cell_angle_alpha   119.59232406
_cell_angle_beta   93.73436865
_cell_angle_gamma   93.71615534
_symmetry_Int_Tables_number   1
_chemical_formula_structural   MgH6C11NO3
_chemical_formula_sum   'Mg6 H36 C66 N6 O18'
_cell_volume   7317.78790271
_cell_formula_units_Z   6
loop_
 _symmetry_equiv_pos_site_id
 _symmetry_equiv_pos_as_xyz
  1  'x, y, z'
loop_
 _atom_site_type_symbol
 _atom_site_label
 _atom_site_symmetry_multiplicity
 _atom_site_fract_x
 _atom_site_fract_y
 _atom_site_fract_z
 _atom_site_occupancy
 _atom_site_pbe_bader_charge
 _atom_site_pbe_bader_spin_density
 _atom_site_pbe_cm5_charge
 _atom_site_pbe_ddec_charge
 _atom_site_pbe_ddec_spin_density
 _atom_site_pbe_ddec_sum_bond_order
 _atom_site_pbe_magmom
Mg  Mg0  1  0.20149651  0.63370565  0.30793946  1  1.683838  0  0.906989  1.409082  0  1.328284  0
Mg  Mg1  1  0.56776959  0.67422537  0.36632351  1  1.683954  0  0.906882  1.409145  0  1.328236  0
Mg  Mg2  1  0.89348239  0.69208214  0.32582667  1  1.683435  0  0.906928  1.408896  0  1.329125  0
Mg  Mg3  1  0.98294013  0.36522245  0.69394070  1  1.681971  0  0.905965  1.407546  0  1.329837  0
Mg  Mg4  1  0.61772625  0.32871683  0.63476434  1  1.684324  0  0.906046  1.407985  0  1.329396  0
Mg  Mg5  1  0.28907122  0.30605984  0.67126455  1  1.683528  0  0.906003  1.407422  0  1.33056  0
H  H6  1  0.86383020  0.62549150  0.44010493  1  0.111607  0  0.106845  0.111474  0  1.004912  0
H  H7  1  0.23793015  0.81458073  0.37451317  1  0.098403  0  0.106891  0.111811  0  1.005129  0
H  H8  1  0.42378107  0.55991934  0.18540983  1  0.109487  0  0.106885  0.111626  0  1.005079  0
H  H9  1  0.07107731  0.59180477  0.47352253  1  0.06602  0  0.097917  0.104948  0  1.020449  0
H  H10  1  0.47887405  0.88170237  0.40814163  1  0.058178  0  0.097881  0.105102  0  1.020399  0
H  H11  1  0.59756722  0.52649229  0.11828845  1  0.057859  0  0.097919  0.105299  0  1.02042  0
H  H12  1  0.20607058  0.52685761  0.45072834  1  0.045699  0  0.105643  0.058872  0  0.994523  0
H  H13  1  0.67931984  0.92390010  0.47313756  1  0.067507  0  0.105286  0.058756  0  0.994878  0
H  H14  1  0.75564775  0.54924255  0.07610033  1  0.057932  0  0.105341  0.058501  0  0.995224  0
H  H15  1  0.74901348  0.56069664  0.49084252  1  0.107858  0  0.105793  0.10661  0  1.013295  0
H  H16  1  0.18854428  0.93011679  0.43928513  1  0.089343  0  0.105742  0.106574  0  1.014113  0
H  H17  1  0.25861366  0.50918339  0.06983551  1  0.117199  0  0.105435  0.106051  0  1.013623  0
H  H18  1  0.94117570  0.52872871  0.52929569  1  0.05526  0  0.101385  0.097269  0  1.00829  0
H  H19  1  0.41266527  0.00054342  0.47129164  1  0.046387  0  0.101487  0.097556  0  1.008291  0
H  H20  1  0.41229365  0.47074900  0.99939506  1  0.051383  0  0.101141  0.096777  0  1.008587  0
H  H21  1  0.42132530  0.44680666  0.51785722  1  0.09704  0  0.105643  0.106687  0  1.014067  0
H  H22  1  0.97461127  0.07106143  0.55319457  1  0.121579  0  0.105942  0.106776  0  1.014023  0
H  H23  1  0.90358643  0.48213856  0.92890504  1  0.098969  0  0.105762  0.107175  0  1.012936  0
H  H24  1  0.22903897  0.47883348  0.47949181  1  0.070597  0  0.101413  0.09734  0  1.008049  0
H  H25  1  0.75035009  0.00066867  0.52115063  1  0.062356  0  0.101494  0.097595  0  1.007845  0
H  H26  1  0.74962988  0.52046124  0.99931483  1  0.064395  0  0.101378  0.09733  0  1.008033  0
H  H27  1  0.96542848  0.48112658  0.55782652  1  0.060067  0  0.105163  0.058025  0  0.996351  0
H  H28  1  0.48446016  0.07669087  0.51891322  1  0.070739  0  0.105107  0.05795  0  0.996643  0
H  H29  1  0.40781101  0.44218243  0.92330757  1  0.060064  0  0.105168  0.057895  0  0.996187  0
H  H30  1  0.64885838  0.41230730  0.61115197  1  0.104142  0  0.109402  0.137283  0  1.005013  0
H  H31  1  0.23669267  0.19885677  0.58771744  1  0.091445  0  0.109185  0.137041  0  1.005053  0
H  H32  1  0.03799270  0.38881997  0.80114388  1  0.119527  0  0.109229  0.136871  0  1.00531  0
H  H33  1  0.31817869  0.38293830  0.56592075  1  0.088518  0  0.106924  0.111713  0  1.005668  0
H  H34  1  0.93543001  0.18296231  0.61705581  1  0.08248  0  0.106759  0.110818  0  1.006323  0
H  H35  1  0.75239757  0.43413452  0.81700440  1  0.110235  0  0.106803  0.111584  0  1.005499  0
H  H36  1  0.10430351  0.41677938  0.53384291  1  0.057653  0  0.097645  0.104712  0  1.021924  0
H  H37  1  0.68769421  0.11706246  0.58321688  1  0.046596  0  0.097584  0.104545  0  1.022345  0
H  H38  1  0.57071392  0.46612531  0.88295219  1  0.05033  0  0.097424  0.104834  0  1.022306  0
H  H39  1  0.53442834  0.59368388  0.39681512  1  0.110121  0  0.109423  0.136483  0  1.003844  0
H  H40  1  0.94041229  0.80312773  0.40630482  1  0.0875  0  0.10919  0.136262  0  1.004471  0
H  H41  1  0.13766978  0.60322193  0.19691242  1  0.068491  0  0.109448  0.136336  0  1.004075  0
C  C42  1  0.27096860  0.61895219  0.38633572  1  0.620902  0  0.095538  0.378987  0  4.086995  0
C  C43  1  0.65171566  0.76736586  0.38105454  1  0.594342  0  0.095374  0.378521  0  4.087808  0
C  C44  1  0.88468516  0.61370343  0.23266133  1  0.596575  0  0.095101  0.378408  0  4.087633  0
C  C45  1  0.07720087  0.62798345  0.39922925  1  -0.056076  0  -0.04431  -0.217308  0  3.95944  0
C  C46  1  0.44890259  0.77122926  0.37202483  1  -0.027538  0  -0.044184  -0.215066  0  3.958146  0
C  C47  1  0.67804896  0.60077777  0.22878716  1  -0.002524  0  -0.043835  -0.216792  0  3.958345  0
C  C48  1  0.01008768  0.61759004  0.43040031  1  -0.04813  0  -0.084548  -0.04978  0  4.034974  0
C  C49  1  0.39211751  0.81278858  0.38240598  1  0.002511  0  -0.084861  -0.05129  0  4.035412  0
C  C50  1  0.57976121  0.56960652  0.18721646  1  -0.106528  0  -0.084962  -0.050237  0  4.035259  0
C  C51  1  0.12404237  0.59847145  0.44862463  1  -0.041552  0  -0.113803  -0.218079  0  4.021141  0
C  C52  1  0.52519825  0.85013494  0.40147826  1  -0.095622  0  -0.112903  -0.217281  0  4.019837  0
C  C53  1  0.67550779  0.55138284  0.14986524  1  -0.011297  0  -0.113651  -0.218766  0  4.020833  0
C  C54  1  0.31450804  0.58911789  0.43592238  1  0.35656  0  0.094663  0.247481  0  4.100783  0
C  C55  1  0.72503267  0.84678807  0.41081505  1  0.364858  0  0.094496  0.247101  0  4.098988  0
C  C56  1  0.87865723  0.56409005  0.15322172  1  0.422141  0  0.095153  0.248312  0  4.098236  0
C  C57  1  0.36269589  0.54033079  0.46102956  1  0.672972  0  0.076771  0.081725  0  3.967553  0
C  C58  1  0.82238638  0.92069354  0.45962804  1  0.643365  0  0.076514  0.081737  0  3.967611  0
C  C59  1  0.90199705  0.53895799  0.07929538  1  0.638704  0  0.077196  0.082749  0  3.968102  0
C  C60  1  0.47813191  0.52183930  0.48291531  1  -0.009575  0  -0.009435  0.067551  0  4.027231  0
C  C61  1  0.95644043  0.96106355  0.47813686  1  0.000726  0  -0.008405  0.067831  0  4.02781  0
C  C62  1  0.99555609  0.51708027  0.03890200  1  0.014034  0  -0.008326  0.067759  0  4.027011  0
C  C63  1  0.67965229  0.53579067  0.49702082  1  -0.08191  0  -0.078566  -0.099193  0  3.953527  0
C  C64  1  0.14407909  0.96120589  0.46420488  1  -0.02371  0  -0.079203  -0.099646  0  3.955904  0
C  C65  1  0.18307564  0.50301588  0.03874440  1  -0.079957  0  -0.078843  -0.098955  0  3.954052  0
C  C66  1  0.78467852  0.51794463  0.51823769  1  -0.04394  0  -0.084698  -0.126167  0  3.98993  0
C  C67  1  0.26693370  0.00027001  0.48206456  1  -0.017104  0  -0.084793  -0.126699  0  3.989388  0
C  C68  1  0.26684263  0.48180867  0.99967263  1  -0.002507  0  -0.084342  -0.125486  0  3.989031  0
C  C69  1  0.69221254  0.48572520  0.52584912  1  0.052398  0  -0.008867  0.06701  0  4.028455  0
C  C70  1  0.20661996  0.04011696  0.51427538  1  -0.035228  0  -0.00808  0.068653  0  4.026843  0
C  C71  1  0.16662295  0.47418510  0.95984532  1  0.042175  0  -0.008563  0.06814  0  4.028256  0
C  C72  1  0.49066822  0.47176396  0.51174468  1  -0.045887  0  -0.078254  -0.099369  0  3.953825  0
C  C73  1  0.01902791  0.03998858  0.52822612  1  -0.036146  0  -0.078789  -0.09953  0  3.953058  0
C  C74  1  0.97909297  0.48826067  0.95998186  1  -0.055079  0  -0.078775  -0.100461  0  3.952314  0
C  C75  1  0.38552924  0.48965046  0.49055089  1  -0.085499  0  -0.083976  -0.125651  0  3.987532  0
C  C76  1  0.89603342  0.00090391  0.51033636  1  -0.082066  0  -0.084384  -0.126349  0  3.988522  0
C  C77  1  0.89512471  0.50942788  0.99906503  1  -0.101557  0  -0.084189  -0.125832  0  3.986665  0
C  C78  1  0.80924158  0.46728597  0.54755103  1  0.642523  0  0.077401  0.083477  0  3.970733  0
C  C79  1  0.34209943  0.08025768  0.53274493  1  0.643712  0  0.076838  0.0827  0  3.970339  0
C  C80  1  0.26192798  0.45246562  0.91971867  1  0.614648  0  0.0771  0.082933  0  3.97076  0
C  C81  1  0.86437540  0.41820492  0.57185304  1  0.390821  0  0.094288  0.248127  0  4.098366  0
C  C82  1  0.44628913  0.15364531  0.58182740  1  0.374466  0  0.09359  0.248046  0  4.098907  0
C  C83  1  0.29284849  0.42811709  0.84633544  1  0.466696  0  0.093743  0.248638  0  4.099333  0
C  C84  1  0.79672595  0.40637316  0.60163054  1  -0.024096  0  -0.106596  -0.297709  0  3.890997  0
C  C85  1  0.39048905  0.19526335  0.59365588  1  -0.02606  0  -0.10636  -0.297691  0  3.890042  0
C  C86  1  0.19537123  0.39834223  0.80471657  1  -0.064644  0  -0.106348  -0.297617  0  3.891848  0
C  C87  1  0.91489501  0.38699303  0.62006585  1  0.602343  0  0.094421  0.376948  0  4.087423  0
C  C88  1  0.52806997  0.23307385  0.61302134  1  0.588567  0  0.094722  0.377889  0  4.086034  0
C  C89  1  0.29500443  0.37992337  0.76689763  1  0.547152  0  0.094871  0.377558  0  4.087909  0
C  C90  1  0.10846342  0.37875200  0.60673313  1  -4.6e-05  0  -0.044498  -0.215624  0  3.957908  0
C  C91  1  0.72991047  0.22798304  0.62127742  1  0.004035  0  -0.044098  -0.216564  0  3.957863  0
C  C92  1  0.50186639  0.39331069  0.77199589  1  -0.024716  0  -0.044069  -0.215705  0  3.958543  0
C  C93  1  0.17207825  0.39027942  0.57606900  1  -0.028596  0  -0.084949  -0.050393  0  4.034287  0
C  C94  1  0.78198297  0.18577987  0.60972534  1  0.013258  0  -0.08508  -0.049001  0  4.03373  0
C  C95  1  0.59619430  0.42396266  0.81419888  1  -0.020033  0  -0.084667  -0.050089  0  4.034975  0
C  C96  1  0.05457213  0.40955769  0.55863177  1  -0.084541  0  -0.113448  -0.218954  0  4.020311  0
C  C97  1  0.64516859  0.14907433  0.59044642  1  -0.073583  0  -0.113061  -0.21875  0  4.021973  0
C  C98  1  0.49622202  0.44134979  0.85092788  1  -0.068601  0  -0.113254  -0.219351  0  4.023253  0
C  C99  1  0.24299996  0.35681033  0.62176248  1  1.492067  0  0.235897  0.675311  0  4.130974  0
C  C100  1  0.88643242  0.26494952  0.64319926  1  1.487367  0  0.235562  0.67507  0  4.132436  0
C  C101  1  0.62139343  0.37827464  0.73503123  1  1.503877  0  0.235385  0.675824  0  4.132234  0
C  C102  1  0.38626005  0.60016830  0.40590393  1  -0.022561  0  -0.106855  -0.297205  0  3.88856  0
C  C103  1  0.78574948  0.80572403  0.39980248  1  0.033471  0  -0.107072  -0.297078  0  3.890325  0
C  C104  1  0.98041874  0.59412203  0.19430418  1  -0.014342  0  -0.107378  -0.297144  0  3.888859  0
C  C105  1  0.94450236  0.64894381  0.38258199  1  1.508803  0  0.235894  0.676801  0  4.130516  0
C  C106  1  0.29539958  0.73361318  0.35107965  1  1.491254  0  0.23547  0.674699  0  4.131265  0
C  C107  1  0.56201038  0.61742508  0.26639914  1  1.494209  0  0.235909  0.677144  0  4.128695  0
N  N108  1  0.43740159  0.57034552  0.45374502  1  -1.206362  0  -0.304681  -0.27592  0  3.31566  0
N  N109  1  0.86678839  0.88337342  0.42956701  1  -1.218023  0  -0.304368  -0.27598  0  3.314876  0
N  N110  1  0.98380789  0.54624760  0.11662064  1  -1.189603  0  -0.304894  -0.276753  0  3.314913  0
N  N111  1  0.73765709  0.43685865  0.55457624  1  -1.193465  0  -0.304662  -0.276411  0  3.312144  0
N  N112  1  0.30092122  0.11771990  0.56317743  1  -1.210604  0  -0.304277  -0.276583  0  3.311223  0
N  N113  1  0.18334929  0.44540556  0.88224641  1  -1.200513  0  -0.304564  -0.276796  0  3.311597  0
O  O114  1  0.77977547  0.65924898  0.39743892  1  -1.241909  0  -0.358582  -0.647419  0  2.153341  0
O  O115  1  0.12029057  0.73816588  0.34080713  1  -1.240842  0  -0.358509  -0.646742  0  2.153883  0
O  O116  1  0.38242702  0.60256606  0.26184928  1  -1.238126  0  -0.358867  -0.647807  0  2.153159  0
O  O117  1  0.99796948  0.65644368  0.35201828  1  -1.299948  0  -0.406514  -0.771143  0  2.419558  0
O  O118  1  0.34149565  0.69554389  0.34354550  1  -1.298838  0  -0.406645  -0.770548  0  2.419284  0
O  O119  1  0.64603518  0.64798751  0.30447339  1  -1.310111  0  -0.406275  -0.771154  0  2.41872  0
O  O120  1  0.34790310  0.62786871  0.35707999  1  -1.31162  0  -0.445046  -0.774981  0  2.295346  0
O  O121  1  0.71985355  0.72921848  0.37220504  1  -1.308729  0  -0.444562  -0.774762  0  2.295421  0
O  O122  1  0.99086484  0.64299254  0.27083147  1  -1.31456  0  -0.444884  -0.77454  0  2.2958  0
O  O123  1  0.40825897  0.34762556  0.60678209  1  -1.240939  0  -0.356916  -0.645493  0  2.158496  0
O  O124  1  0.06090868  0.25915174  0.65236844  1  -1.237508  0  -0.356707  -0.644975  0  2.158847  0
O  O125  1  0.80165558  0.39325420  0.74084353  1  -1.244505  0  -0.356574  -0.645665  0  2.158619  0
O  O126  1  0.19059583  0.34695398  0.65086080  1  -1.299761  0  -0.407147  -0.772235  0  2.418244  0
O  O127  1  0.84374004  0.30390460  0.65306004  1  -1.296364  0  -0.406699  -0.77174  0  2.417648  0
O  O128  1  0.53982771  0.34916702  0.69607433  1  -1.310752  0  -0.406886  -0.772263  0  2.418932  0
O  O129  1  0.83944762  0.37661912  0.64849626  1  -1.311204  0  -0.44466  -0.772813  0  2.292304  0
O  O130  1  0.46300846  0.27188191  0.62337857  1  -1.302809  0  -0.445027  -0.773105  0  2.292087  0
O  O131  1  0.19108055  0.35148284  0.72809501  1  -1.317203  0  -0.445161  -0.773049  0  2.292567  0
