# generated using pymatgen
data_TbH11(C5O3)3
_symmetry_space_group_name_H-M   'P 1'
_cell_length_a   9.01872372
_cell_length_b   9.76883812
_cell_length_c   12.88548546
_cell_angle_alpha   69.29177868
_cell_angle_beta   86.12852310
_cell_angle_gamma   61.12102318
_symmetry_Int_Tables_number   1
_chemical_formula_structural   TbH11(C5O3)3
_chemical_formula_sum   'Tb2 H22 C30 O18'
_cell_volume   922.42377523
_cell_formula_units_Z   2
loop_
 _symmetry_equiv_pos_site_id
 _symmetry_equiv_pos_as_xyz
  1  'x, y, z'
loop_
 _atom_site_type_symbol
 _atom_site_label
 _atom_site_symmetry_multiplicity
 _atom_site_fract_x
 _atom_site_fract_y
 _atom_site_fract_z
 _atom_site_occupancy
 _atom_site_hle17_bader_spin_density
 _atom_site_hle17_ddec_charge
 _atom_site_hle17_ddec_spin_density
 _atom_site_hle17_ddec_sum_bond_order
 _atom_site_hle17_magmom
 _atom_site_hse06_10hf_bader_spin_density
 _atom_site_hse06_10hf_ddec_charge
 _atom_site_hse06_10hf_ddec_spin_density
 _atom_site_hse06_10hf_ddec_sum_bond_order
 _atom_site_hse06_10hf_magmom
 _atom_site_hse06_bader_spin_density
 _atom_site_hse06_ddec_charge
 _atom_site_hse06_ddec_spin_density
 _atom_site_hse06_ddec_sum_bond_order
 _atom_site_hse06_magmom
 _atom_site_pbe_bader_spin_density
 _atom_site_pbe_cm5_charge
 _atom_site_pbe_ddec_charge
 _atom_site_pbe_ddec_spin_density
 _atom_site_pbe_ddec_sum_bond_order
 _atom_site_pbe_magmom
Tb  Tb0  1  0.75289479  0.94972461  0.51887017  1  0  2.279194  0  1.587967  0  0  2.129556  0  2.05366  0  0  2.254459  0  1.870564  0  0  1.491514  2.092141  0  2.086465  0
Tb  Tb1  1  0.24710137  0.05027862  0.48112981  1  0  2.27918  0  1.587953  0  0  2.129562  0  2.053627  0  0  2.254445  0  1.870543  0  0  1.49151  2.092146  0  2.08643  0
H  H2  1  0.12809677  0.74077462  0.49537949  1  0  0.446608  0  0.852897  0  0  0.415076  0  0.917133  0  0  0.426614  0  0.900639  0  0  0.300132  0.407079  0  0.928711  0
H  H3  1  0.87189925  0.25923107  0.50462143  1  0  0.446558  0  0.852985  0  0  0.41501  0  0.917248  0  0  0.42655  0  0.900751  0  0  0.300112  0.407012  0  0.928828  0
H  H4  1  0.06047507  0.63538973  0.59014030  1  0  0.433187  0  0.821702  0  0  0.413846  0  0.880133  0  0  0.422031  0  0.871416  0  0  0.321222  0.40807  0  0.886839  0
H  H5  1  0.93952130  0.36461961  0.40986281  1  0  0.433101  0  0.821756  0  0  0.413764  0  0.880179  0  0  0.421946  0  0.871516  0  0  0.321209  0.407989  0  0.886881  0
H  H6  1  0.62246040  0.85528476  0.36193928  1  0  0.44717  0  0.853828  0  0  0.414776  0  0.919113  0  0  0.426409  0  0.902292  0  0  0.300026  0.406809  0  0.930715  0
H  H7  1  0.37753913  0.14471844  0.63805983  1  0  0.447114  0  0.853884  0  0  0.414712  0  0.919182  0  0  0.426352  0  0.902353  0  0  0.299993  0.406745  0  0.930783  0
H  H8  1  0.82689518  0.73170354  0.39514703  1  0  0.43735  0  0.818944  0  0  0.421241  0  0.867132  0  0  0.429794  0  0.854765  0  0  0.326237  0.415326  0  0.875863  0
H  H9  1  0.17310144  0.26830088  0.60485497  1  0  0.437316  0  0.819009  0  0  0.421207  0  0.867183  0  0  0.42976  0  0.854816  0  0  0.326229  0.415291  0  0.875915  0
H  H10  1  0.53065748  0.33428847  0.00118406  1  0  0.11089  0  0.950877  0  0  0.119996  0  1.012749  0  0  0.123219  0  1.011664  0  0  0.104118  0.117699  0  1.013618  0
H  H11  1  0.46935118  0.66568733  0.99881539  1  0  0.110859  0  0.950891  0  0  0.119937  0  1.012814  0  0  0.12316  0  1.01173  0  0  0.104071  0.117661  0  1.013661  0
H  H12  1  0.75165087  0.27611680  0.87044616  1  0  0.084684  0  0.97646  0  0  0.093459  0  1.040559  0  0  0.094467  0  1.042323  0  0  0.097353  0.092651  0  1.039448  0
H  H13  1  0.24835623  0.72385789  0.12954973  1  0  0.084679  0  0.976642  0  0  0.093454  0  1.040714  0  0  0.094464  0  1.042473  0  0  0.097331  0.092623  0  1.039624  0
H  H14  1  0.05592969  0.16139679  0.93893579  1  0  0.095353  0  0.935185  0  0  0.109051  0  0.986011  0  0  0.112038  0  0.985287  0  0  0.104871  0.10691  0  0.986659  0
H  H15  1  0.94407234  0.83859880  0.06106824  1  0  0.09541  0  0.935069  0  0  0.109061  0  0.985945  0  0  0.112049  0  0.985222  0  0  0.104887  0.106919  0  0.986593  0
H  H16  1  0.13739034  0.09893482  0.13897102  1  0  0.110693  0  0.929274  0  0  0.121199  0  0.984743  0  0  0.124667  0  0.982537  0  0  0.110784  0.118752  0  0.986199  0
H  H17  1  0.86260731  0.90107210  0.86102955  1  0  0.110634  0  0.929291  0  0  0.121151  0  0.984759  0  0  0.124618  0  0.982554  0  0  0.110777  0.118714  0  0.986205  0
H  H18  1  0.26722325  0.56096522  0.42368967  1  0  0.108821  0  0.959709  0  0  0.117585  0  1.024054  0  0  0.121762  0  1.01997  0  0  0.10912  0.114746  0  1.0265  0
H  H19  1  0.73277581  0.43903679  0.57630819  1  0  0.108797  0  0.959753  0  0  0.117565  0  1.024098  0  0  0.121743  0  1.020014  0  0  0.109103  0.114726  0  1.026543  0
H  H20  1  0.60514796  0.72447463  0.23816704  1  0  0.101613  0  0.934905  0  0  0.11397  0  0.989429  0  0  0.117901  0  0.985753  0  0  0.109712  0.111155  0  0.991976  0
H  H21  1  0.39485053  0.27552606  0.76183428  1  0  0.101638  0  0.934904  0  0  0.113994  0  0.989432  0  0  0.117927  0  0.985753  0  0  0.109719  0.11118  0  0.99198  0
H  H22  1  0.70651880  0.49827982  0.16209497  1  0  0.118739  0  0.946115  0  0  0.130496  0  0.998916  0  0  0.133916  0  0.998267  0  0  0.111414  0.128081  0  0.999481  0
H  H23  1  0.29348880  0.50171830  0.83790438  1  0  0.11868  0  0.946208  0  0  0.13045  0  0.999001  0  0  0.133871  0  0.998353  0  0  0.111403  0.128036  0  0.999566  0
C  C24  1  0.94278007  0.12592052  0.30226928  1  0  0.741051  0  3.857449  0  0  0.692031  0  4.152622  0  0  0.729147  0  4.143539  0  0  0.233507  0.66731  0  4.160479  0
C  C25  1  0.05721971  0.87408885  0.69773060  1  0  0.74085  0  3.857842  0  0  0.691907  0  4.152866  0  0  0.729028  0  4.143785  0  0  0.233461  0.667186  0  4.160724  0
C  C26  1  0.88356883  0.17540624  0.18209851  1  0  -0.167865  0  3.730039  0  0  -0.151206  0  3.964952  0  0  -0.1607  0  3.984102  0  0  -0.02019  -0.144667  0  3.950924  0
C  C27  1  0.11643263  0.82459333  0.81789678  1  0  -0.167836  0  3.73002  0  0  -0.151159  0  3.964938  0  0  -0.160661  0  3.984091  0  0  -0.020153  -0.144621  0  3.950915  0
C  C28  1  0.71259878  0.24498110  0.14062584  1  0  0.261982  0  3.759573  0  0  0.245545  0  4.020736  0  0  0.256912  0  4.036019  0  0  0.090156  0.237892  0  4.009934  0
C  C29  1  0.28740059  0.75501343  0.85937388  1  0  0.261804  0  3.759262  0  0  0.245292  0  4.020537  0  0  0.256656  0  4.035825  0  0  0.090086  0.237638  0  4.009741  0
C  C30  1  0.66498118  0.28043670  0.02962738  1  0  -0.17764  0  3.755636  0  0  -0.201564  0  4.012805  0  0  -0.207227  0  4.032682  0  0  -0.099608  -0.197771  0  3.999327  0
C  C31  1  0.33502530  0.71954769  0.97037620  1  0  -0.177446  0  3.755521  0  0  -0.201322  0  4.012687  0  0  -0.206986  0  4.032569  0  0  -0.099536  -0.197549  0  3.999192  0
C  C32  1  0.78876920  0.24917996  0.95710996  1  0  -0.036925  0  3.774365  0  0  -0.052118  0  4.027125  0  0  -0.051458  0  4.049343  0  0  -0.085185  -0.052277  0  4.011915  0
C  C33  1  0.21123550  0.75080829  0.04288962  1  0  -0.036989  0  3.774684  0  0  -0.052168  0  4.027386  0  0  -0.05151  0  4.049605  0  0  -0.085151  -0.052308  0  4.012187  0
C  C34  1  0.95902242  0.18541031  0.99551191  1  0  -0.080392  0  3.790918  0  0  -0.096988  0  4.046052  0  0  -0.101047  0  4.068191  0  0  -0.093608  -0.094328  0  4.030955  0
C  C35  1  0.04098215  0.81458039  0.00448861  1  0  -0.080418  0  3.790777  0  0  -0.096968  0  4.0459  0  0  -0.101027  0  4.068039  0  0  -0.093585  -0.094305  0  4.030798  0
C  C36  1  0.00524807  0.14955519  0.10682879  1  0  -0.051953  0  3.734734  0  0  -0.074857  0  3.982043  0  0  -0.073879  0  4.001964  0  0  -0.0789  -0.075138  0  3.967963  0
C  C37  1  0.99475253  0.85045058  0.89316653  1  0  -0.051863  0  3.734505  0  0  -0.074795  0  3.98183  0  0  -0.073816  0  4.001752  0  0  -0.078931  -0.075083  0  3.96775  0
C  C38  1  0.54401872  0.40179043  0.25090784  1  0  0.303144  0  3.744467  0  0  0.277973  0  4.015797  0  0  0.294126  0  4.027519  0  0  0.111099  0.267095  0  4.007607  0
C  C39  1  0.45597935  0.59820914  0.74908912  1  0  0.303328  0  3.744216  0  0  0.278005  0  4.015739  0  0  0.294125  0  4.027455  0  0  0.111118  0.267144  0  4.007559  0
C  C40  1  0.42069078  0.41929608  0.32567350  1  0  -0.153221  0  3.721648  0  0  -0.137387  0  3.967565  0  0  -0.147421  0  3.984251  0  0  -0.014144  -0.13085  0  3.956206  0
C  C41  1  0.57931469  0.58069693  0.67433262  1  0  -0.153202  0  3.721612  0  0  -0.137324  0  3.967497  0  0  -0.147256  0  3.984056  0  0  -0.014111  -0.130845  0  3.956218  0
C  C42  1  0.36385244  0.54783542  0.36675964  1  0  -0.041197  0  3.691552  0  0  -0.076609  0  3.939922  0  0  -0.071216  0  3.955142  0  0  -0.071457  -0.079584  0  3.928611  0
C  C43  1  0.63614827  0.45216786  0.63323630  1  0  -0.041245  0  3.691577  0  0  -0.076668  0  3.939928  0  0  -0.071305  0  3.955115  0  0  -0.071474  -0.079625  0  3.928633  0
C  C44  1  0.43122481  0.65728886  0.33761601  1  0  -0.098217  0  3.786567  0  0  -0.079306  0  4.034045  0  0  -0.089492  0  4.055887  0  0  -0.031317  -0.072511  0  4.018637  0
C  C45  1  0.56877426  0.34271317  0.66238107  1  0  -0.098181  0  3.786394  0  0  -0.079252  0  4.03385  0  0  -0.089434  0  4.055697  0  0  -0.031311  -0.072454  0  4.018439  0
C  C46  1  0.55478937  0.63766336  0.26349573  1  0  -0.033628  0  3.740403  0  0  -0.058741  0  3.991499  0  0  -0.053408  0  4.007304  0  0  -0.076918  -0.061821  0  3.980182  0
C  C47  1  0.44521529  0.36233592  0.73650808  1  0  -0.033703  0  3.740454  0  0  -0.058824  0  3.991553  0  0  -0.053495  0  4.007362  0  0  -0.076928  -0.061904  0  3.980238  0
C  C48  1  0.61160708  0.51118136  0.22027071  1  0  -0.209497  0  3.75903  0  0  -0.227831  0  4.019225  0  0  -0.235909  0  4.03758  0  0  -0.103336  -0.222524  0  4.006587  0
C  C49  1  0.38839647  0.48881796  0.77973235  1  0  -0.209433  0  3.759127  0  0  -0.227726  0  4.01936  0  0  -0.235812  0  4.037732  0  0  -0.103294  -0.222418  0  4.006719  0
C  C50  1  0.36028027  0.29399153  0.36863780  1  0  0.713715  0  3.88116  0  0  0.663508  0  4.177123  0  0  0.699538  0  4.173073  0  0  0.2204  0.638703  0  4.185256  0
C  C51  1  0.63972099  0.70601041  0.63136157  1  0  0.713588  0  3.880995  0  0  0.663447  0  4.176846  0  0  0.699448  0  4.172799  0  0  0.22041  0.638656  0  4.184982  0
C  C52  1  0.37490551  0.78883153  0.38610860  1  0  0.656702  0  3.908616  0  0  0.606354  0  4.201998  0  0  0.639572  0  4.201743  0  0  0.206749  0.583389  0  4.205882  0
C  C53  1  0.62509461  0.21117038  0.61389236  1  0  0.656661  0  3.908627  0  0  0.606308  0  4.202008  0  0  0.639522  0  4.201751  0  0  0.206694  0.583339  0  4.205895  0
O  O54  1  0.86851564  0.06843009  0.37823715  1  0  -0.745164  0  2.087469  0  0  -0.69889  0  2.363249  0  0  -0.736404  0  2.347306  0  0  -0.413013  -0.68133  0  2.372121  0
O  O55  1  0.13148998  0.93157158  0.62176914  1  0  -0.745022  0  2.087808  0  0  -0.698816  0  2.363613  0  0  -0.736273  0  2.347544  0  0  -0.412924  -0.681255  0  2.372482  0
O  O56  1  0.06916778  0.14201802  0.32037544  1  0  -0.736193  0  2.054255  0  0  -0.686306  0  2.304546  0  0  -0.721981  0  2.289584  0  0  -0.399285  -0.66825  0  2.311694  0
O  O57  1  0.93083134  0.85799519  0.67962040  1  0  -0.736128  0  2.054195  0  0  -0.686261  0  2.304437  0  0  -0.721942  0  2.289476  0  0  -0.399341  -0.668204  0  2.311586  0
O  O58  1  0.58256227  0.28085668  0.20815562  1  0  -0.269569  0  2.37279  0  0  -0.201824  0  2.597895  0  0  -0.220565  0  2.599366  0  0  -0.129729  -0.188529  0  2.596636  0
O  O59  1  0.41743791  0.71914798  0.79183534  1  0  -0.269605  0  2.372378  0  0  -0.201806  0  2.597566  0  0  -0.220551  0  2.59905  0  0  -0.129788  -0.188507  0  2.596303  0
O  O60  1  0.47330415  0.13797681  0.41629246  1  0  -0.807251  0  2.127084  0  0  -0.752455  0  2.391829  0  0  -0.796817  0  2.380915  0  0  -0.422596  -0.733273  0  2.39848  0
O  O61  1  0.52669217  0.86202402  0.58370502  1  0  -0.807231  0  2.127202  0  0  -0.752401  0  2.391814  0  0  -0.79677  0  2.380918  0  0  -0.42258  -0.733236  0  2.398498  0
O  O62  1  0.20348780  0.33910478  0.36482836  1  0  -0.661721  0  1.921311  0  0  -0.615118  0  2.144037  0  0  -0.645149  0  2.131306  0  0  -0.353412  -0.598882  0  2.151654  0
O  O63  1  0.79651863  0.66089594  0.63516727  1  0  -0.661717  0  1.921217  0  0  -0.615141  0  2.143917  0  0  -0.645179  0  2.131197  0  0  -0.353446  -0.598901  0  2.15153  0
O  O64  1  0.27277415  0.79718032  0.46068163  1  0  -0.70639  0  2.091339  0  0  -0.649115  0  2.330804  0  0  -0.683657  0  2.324772  0  0  -0.356933  -0.630205  0  2.334376  0
O  O65  1  0.72721720  0.20283045  0.53931740  1  0  -0.706305  0  2.091423  0  0  -0.648979  0  2.330817  0  0  -0.683545  0  2.324849  0  0  -0.356851  -0.630078  0  2.334413  0
O  O66  1  0.42803662  0.89554828  0.35525532  1  0  -0.690251  0  2.025909  0  0  -0.634146  0  2.254063  0  0  -0.665533  0  2.243644  0  0  -0.345471  -0.61702  0  2.260678  0
O  O67  1  0.57195894  0.10445357  0.64475046  1  0  -0.690312  0  2.02582  0  0  -0.634214  0  2.253974  0  0  -0.665603  0  2.243557  0  0  -0.345514  -0.617086  0  2.260596  0
O  O68  1  0.03327892  0.71264808  0.51265877  1  0  -0.891099  0  1.853204  0  0  -0.843869  0  2.039725  0  0  -0.87043  0  2.00753  0  0  -0.617409  -0.83046  0  2.058986  0
O  O69  1  0.96671113  0.28736510  0.48734357  1  0  -0.890946  0  1.853219  0  0  -0.843718  0  2.039749  0  0  -0.870278  0  2.007601  0  0  -0.617355  -0.830306  0  2.059006  0
O  O70  1  0.73474589  0.84607029  0.37893905  1  0  -0.892705  0  1.841292  0  0  -0.847349  0  2.021834  0  0  -0.874285  0  1.985281  0  0  -0.635885  -0.834396  0  2.042673  0
O  O71  1  0.26525148  0.15393041  0.62106230  1  0  -0.892631  0  1.841366  0  0  -0.847265  0  2.0219  0  0  -0.874212  0  1.985333  0  0  -0.635859  -0.834311  0  2.042739  0
