# generated using pymatgen
data_CdCo2H16C12(NO4)4
_symmetry_space_group_name_H-M   'P 1'
_cell_length_a   7.48803774
_cell_length_b   8.94923064
_cell_length_c   8.94925605
_cell_angle_alpha   90.00023411
_cell_angle_beta   89.99999888
_cell_angle_gamma   90.00034451
_symmetry_Int_Tables_number   1
_chemical_formula_structural   CdCo2H16C12(NO4)4
_chemical_formula_sum   'Cd1 Co2 H16 C12 N4 O16'
_cell_volume   599.70912827
_cell_formula_units_Z   1
loop_
 _symmetry_equiv_pos_site_id
 _symmetry_equiv_pos_as_xyz
  1  'x, y, z'
loop_
 _atom_site_type_symbol
 _atom_site_label
 _atom_site_symmetry_multiplicity
 _atom_site_fract_x
 _atom_site_fract_y
 _atom_site_fract_z
 _atom_site_occupancy
 _atom_site_hle17_bader_spin_density
 _atom_site_hle17_ddec_charge
 _atom_site_hle17_ddec_spin_density
 _atom_site_hle17_ddec_sum_bond_order
 _atom_site_hle17_magmom
 _atom_site_hse06_10hf_bader_spin_density
 _atom_site_hse06_10hf_ddec_charge
 _atom_site_hse06_10hf_ddec_spin_density
 _atom_site_hse06_10hf_ddec_sum_bond_order
 _atom_site_hse06_10hf_magmom
 _atom_site_hse06_bader_spin_density
 _atom_site_hse06_ddec_charge
 _atom_site_hse06_ddec_spin_density
 _atom_site_hse06_ddec_sum_bond_order
 _atom_site_hse06_magmom
 _atom_site_pbe_bader_spin_density
 _atom_site_pbe_cm5_charge
 _atom_site_pbe_ddec_charge
 _atom_site_pbe_ddec_spin_density
 _atom_site_pbe_ddec_sum_bond_order
 _atom_site_pbe_magmom
Cd  Cd0  1  0.99999913  0.50000043  0.49999901  1  0  1.216952  0  1.566376  0  0  1.039689  0  2.000914  0  0  1.096231  0  1.948607  0  0  0.778946  0.999701  0  2.036201  0
Co  Co1  1  0.54327363  0.49999965  0.99999766  1  0  0.797828  0  2.759113  0  0  0.879405  0  3.1468  0  0  0.958863  0  3.100125  0  0  0.751111  0.829133  0  3.183518  0
Co  Co2  1  0.45672180  0.00000105  0.49999909  1  0  0.797752  0  2.759233  0  0  0.879402  0  3.146912  0  0  0.958892  0  3.10017  0  0  0.751027  0.829083  0  3.183697  0
H  H3  1  0.18272169  0.62689303  0.88367920  1  0  0.08804  0  0.928672  0  0  0.102192  0  0.988482  0  0  0.103316  0  0.988137  0  0  0.111667  0.101274  0  0.988832  0
H  H4  1  0.18272478  0.37310316  0.11632439  1  0  0.087998  0  0.928662  0  0  0.102149  0  0.988457  0  0  0.103272  0  0.988114  0  0  0.111663  0.10123  0  0.988804  0
H  H5  1  0.81728004  0.88367543  0.37310878  1  0  0.088051  0  0.928652  0  0  0.102225  0  0.988427  0  0  0.103349  0  0.988082  0  0  0.11169  0.101305  0  0.988779  0
H  H6  1  0.81727996  0.11632619  0.62689478  1  0  0.08808  0  0.928628  0  0  0.102247  0  0.988447  0  0  0.103371  0  0.988105  0  0  0.111702  0.101327  0  0.988801  0
H  H7  1  0.07147494  0.63215409  0.06023870  1  0  0.088346  0  0.937411  0  0  0.100786  0  0.998835  0  0  0.101781  0  0.998105  0  0  0.109523  0.099961  0  0.999444  0
H  H8  1  0.07146999  0.36784266  0.93976602  1  0  0.088326  0  0.93734  0  0  0.100731  0  0.998787  0  0  0.101727  0  0.998056  0  0  0.109484  0.099904  0  0.999397  0
H  H9  1  0.92853053  0.06023843  0.36784632  1  0  0.088343  0  0.937377  0  0  0.100759  0  0.998817  0  0  0.101754  0  0.998087  0  0  0.109496  0.099936  0  0.999423  0
H  H10  1  0.92852969  0.93976151  0.63215612  1  0  0.08835  0  0.937362  0  0  0.100819  0  0.998778  0  0  0.101817  0  0.998047  0  0  0.109512  0.099994  0  0.999385  0
H  H11  1  0.34445429  0.62051380  0.18557758  1  0  0.305222  0  0.928811  0  0  0.292668  0  0.9913  0  0  0.301493  0  0.984692  0  0  0.29644  0.286596  0  0.995835  0
H  H12  1  0.34444809  0.37948543  0.81442265  1  0  0.305241  0  0.928759  0  0  0.292695  0  0.991248  0  0  0.30152  0  0.984643  0  0  0.296437  0.286623  0  0.995785  0
H  H13  1  0.65555426  0.18557592  0.37948219  1  0  0.305214  0  0.928779  0  0  0.292668  0  0.991259  0  0  0.30149  0  0.98466  0  0  0.296441  0.286591  0  0.995806  0
H  H14  1  0.65555118  0.81442488  0.62051356  1  0  0.305205  0  0.928839  0  0  0.292666  0  0.991326  0  0  0.301491  0  0.984722  0  0  0.29645  0.286604  0  0.995849  0
H  H15  1  0.38860379  0.73802764  0.04556506  1  0  0.305247  0  0.844523  0  0  0.30596  0  0.884949  0  0  0.312788  0  0.880785  0  0  0.321539  0.300967  0  0.888407  0
H  H16  1  0.38860476  0.26197070  0.95443293  1  0  0.305268  0  0.844462  0  0  0.305991  0  0.88489  0  0  0.312821  0  0.880722  0  0  0.321538  0.300998  0  0.88835  0
H  H17  1  0.61139933  0.04556241  0.26196822  1  0  0.305246  0  0.844427  0  0  0.305959  0  0.884868  0  0  0.312783  0  0.880713  0  0  0.321515  0.300968  0  0.888323  0
H  H18  1  0.61139592  0.95443705  0.73802976  1  0  0.305264  0  0.844417  0  0  0.305983  0  0.884858  0  0  0.312811  0  0.880693  0  0  0.321521  0.300992  0  0.888319  0
C  C19  1  0.18497848  0.58469523  0.99888422  1  0  0.037693  0  3.569169  0  0  -0.013139  0  3.836301  0  0  -0.009346  0  3.84676  0  0  -0.068889  -0.015401  0  3.829026  0
C  C20  1  0.18498186  0.41530209  0.00111937  1  0  0.037758  0  3.569188  0  0  -0.012979  0  3.836253  0  0  -0.009187  0  3.846715  0  0  -0.068869  -0.015238  0  3.828974  0
C  C21  1  0.81502085  0.99888094  0.41530358  1  0  0.037614  0  3.569183  0  0  -0.01315  0  3.83633  0  0  -0.009358  0  3.846793  0  0  -0.068909  -0.015405  0  3.829042  0
C  C22  1  0.81502128  0.00112066  0.58469998  1  0  0.037711  0  3.569089  0  0  -0.013185  0  3.83635  0  0  -0.009396  0  3.846816  0  0  -0.068911  -0.015442  0  3.829068  0
C  C23  1  0.77629568  0.41975584  0.78632542  1  0  0.52928  0  3.885682  0  0  0.489238  0  4.188982  0  0  0.522148  0  4.179489  0  0  0.212318  0.466182  0  4.195364  0
C  C24  1  0.77629091  0.58024445  0.21367814  1  0  0.529397  0  3.885344  0  0  0.489413  0  4.188566  0  0  0.522318  0  4.179063  0  0  0.212417  0.466347  0  4.194961  0
C  C25  1  0.22370763  0.78631180  0.58024648  1  0  0.529314  0  3.885834  0  0  0.489313  0  4.189053  0  0  0.52223  0  4.179551  0  0  0.212375  0.466245  0  4.195447  0
C  C26  1  0.22370825  0.21368906  0.41975934  1  0  0.52933  0  3.885587  0  0  0.489321  0  4.188817  0  0  0.522239  0  4.179311  0  0  0.212376  0.46625  0  4.195219  0
C  C27  1  0.67935357  0.56087041  0.73111218  1  0  0.525054  0  3.863681  0  0  0.485198  0  4.163451  0  0  0.518345  0  4.15386  0  0  0.214355  0.461581  0  4.170334  0
C  C28  1  0.67936247  0.43913945  0.26888803  1  0  0.524818  0  3.863619  0  0  0.48491  0  4.163443  0  0  0.518084  0  4.153796  0  0  0.214192  0.461296  0  4.170324  0
C  C29  1  0.32063670  0.73110142  0.43915307  1  0  0.524884  0  3.863665  0  0  0.485039  0  4.163416  0  0  0.518179  0  4.153833  0  0  0.214233  0.461431  0  4.170285  0
C  C30  1  0.32063237  0.26889769  0.56084604  1  0  0.524903  0  3.863399  0  0  0.485068  0  4.163148  0  0  0.518209  0  4.15356  0  0  0.214273  0.461455  0  4.170033  0
N  N31  1  0.35622910  0.62974344  0.07009761  1  0  -0.513573  0  3.148352  0  0  -0.51472  0  3.419352  0  0  -0.53896  0  3.417068  0  0  -0.615626  -0.499295  0  3.421759  0
N  N32  1  0.35622551  0.37025809  0.92990486  1  0  -0.513637  0  3.148382  0  0  -0.514846  0  3.419404  0  0  -0.539081  0  3.417115  0  0  -0.615641  -0.499428  0  3.421816  0
N  N33  1  0.64377506  0.07009555  0.37026219  1  0  -0.513551  0  3.148323  0  0  -0.514734  0  3.419352  0  0  -0.538979  0  3.41707  0  0  -0.615619  -0.499297  0  3.421768  0
N  N34  1  0.64377414  0.92990295  0.62973803  1  0  -0.513581  0  3.148328  0  0  -0.51478  0  3.419427  0  0  -0.539022  0  3.417144  0  0  -0.615612  -0.499357  0  3.42183  0
O  O35  1  0.72489576  0.62225433  0.61176942  1  0  -0.532546  0  2.061537  0  0  -0.48123  0  2.287254  0  0  -0.507023  0  2.280863  0  0  -0.276104  -0.463241  0  2.291399  0
O  O36  1  0.72490690  0.37774347  0.38822967  1  0  -0.532448  0  2.061398  0  0  -0.481086  0  2.287103  0  0  -0.506867  0  2.280678  0  0  -0.276026  -0.4631  0  2.291248  0
O  O37  1  0.27509964  0.61175461  0.37775220  1  0  -0.532529  0  2.061472  0  0  -0.481185  0  2.287172  0  0  -0.50696  0  2.280773  0  0  -0.276075  -0.463197  0  2.291313  0
O  O38  1  0.27509617  0.38824316  0.62224916  1  0  -0.532472  0  2.061337  0  0  -0.48115  0  2.287045  0  0  -0.50692  0  2.280642  0  0  -0.276052  -0.463165  0  2.291193  0
O  O39  1  0.55307767  0.60831234  0.81708702  1  0  -0.48316  0  2.07912  0  0  -0.473959  0  2.343059  0  0  -0.507582  0  2.335211  0  0  -0.28972  -0.450827  0  2.348451  0
O  O40  1  0.55307822  0.39168124  0.18290649  1  0  -0.483086  0  2.078798  0  0  -0.473886  0  2.342769  0  0  -0.507526  0  2.334914  0  0  -0.28967  -0.450753  0  2.348158  0
O  O41  1  0.44692109  0.81708781  0.39169008  1  0  -0.483118  0  2.078593  0  0  -0.473948  0  2.342533  0  0  -0.507581  0  2.334691  0  0  -0.289687  -0.450805  0  2.347922  0
O  O42  1  0.44692950  0.18291083  0.60831238  1  0  -0.483098  0  2.078312  0  0  -0.473935  0  2.342247  0  0  -0.50757  0  2.334406  0  0  -0.28969  -0.450788  0  2.347639  0
O  O43  1  0.72291570  0.37076070  0.91393928  1  0  -0.503518  0  2.069389  0  0  -0.49277  0  2.322226  0  0  -0.524905  0  2.31379  0  0  -0.295128  -0.470485  0  2.3278  0
O  O44  1  0.72291261  0.62924715  0.08604529  1  0  -0.503641  0  2.068876  0  0  -0.492918  0  2.321687  0  0  -0.525061  0  2.313256  0  0  -0.295193  -0.470632  0  2.327267  0
O  O45  1  0.27707855  0.91395429  0.62924187  1  0  -0.503501  0  2.068959  0  0  -0.492784  0  2.321778  0  0  -0.52493  0  2.313344  0  0  -0.295076  -0.470482  0  2.327362  0
O  O46  1  0.27708225  0.08604014  0.37075277  1  0  -0.503567  0  2.068773  0  0  -0.492852  0  2.321588  0  0  -0.525004  0  2.313155  0  0  -0.295108  -0.470547  0  2.327171  0
O  O47  1  0.89849705  0.36215551  0.71020389  1  0  -0.549193  0  2.035393  0  0  -0.499822  0  2.27463  0  0  -0.525527  0  2.264975  0  0  -0.290648  -0.481773  0  2.2808  0
O  O48  1  0.89849670  0.63785433  0.28979408  1  0  -0.549157  0  2.035188  0  0  -0.499812  0  2.274398  0  0  -0.525504  0  2.264725  0  0  -0.29065  -0.481765  0  2.280565  0
O  O49  1  0.10149777  0.71019669  0.63785447  1  0  -0.549199  0  2.035507  0  0  -0.49984  0  2.274689  0  0  -0.52555  0  2.265053  0  0  -0.290678  -0.481804  0  2.280895  0
O  O50  1  0.10149893  0.28980133  0.36214466  1  0  -0.549157  0  2.035269  0  0  -0.499784  0  2.274455  0  0  -0.525483  0  2.2648  0  0  -0.290658  -0.481747  0  2.280652  0
