# generated using pymatgen
data_DyH7C8(NO2)3
_symmetry_space_group_name_H-M   'P 1'
_cell_length_a   6.15118836
_cell_length_b   9.20604191
_cell_length_c   9.32333435
_cell_angle_alpha   85.11104671
_cell_angle_beta   71.80369258
_cell_angle_gamma   85.47222190
_symmetry_Int_Tables_number   1
_chemical_formula_structural   DyH7C8(NO2)3
_chemical_formula_sum   'Dy2 H14 C16 N6 O12'
_cell_volume   498.97134198
_cell_formula_units_Z   2
loop_
 _symmetry_equiv_pos_site_id
 _symmetry_equiv_pos_as_xyz
  1  'x, y, z'
loop_
 _atom_site_type_symbol
 _atom_site_label
 _atom_site_symmetry_multiplicity
 _atom_site_fract_x
 _atom_site_fract_y
 _atom_site_fract_z
 _atom_site_occupancy
 _atom_site_hle17_bader_spin_density
 _atom_site_hle17_ddec_charge
 _atom_site_hle17_ddec_spin_density
 _atom_site_hle17_ddec_sum_bond_order
 _atom_site_hle17_magmom
 _atom_site_hse06_10hf_bader_spin_density
 _atom_site_hse06_10hf_ddec_charge
 _atom_site_hse06_10hf_ddec_spin_density
 _atom_site_hse06_10hf_ddec_sum_bond_order
 _atom_site_hse06_10hf_magmom
 _atom_site_hse06_bader_spin_density
 _atom_site_hse06_ddec_charge
 _atom_site_hse06_ddec_spin_density
 _atom_site_hse06_ddec_sum_bond_order
 _atom_site_hse06_magmom
 _atom_site_pbe_bader_spin_density
 _atom_site_pbe_cm5_charge
 _atom_site_pbe_ddec_charge
 _atom_site_pbe_ddec_spin_density
 _atom_site_pbe_ddec_sum_bond_order
 _atom_site_pbe_magmom
Dy  Dy0  1  0.37797275  0.68309419  0.47067071  1  0  2.240528  0  1.703401  0  0  2.092448  0  2.180588  0  0  2.14095  0  2.135619  0  0  1.462118  2.055413  0  2.215434  0
Dy  Dy1  1  0.62202585  0.31690396  0.52932787  1  0  2.240552  0  1.703373  0  0  2.092458  0  2.180552  0  0  2.140961  0  2.135584  0  0  1.462125  2.055418  0  2.215412  0
H  H2  1  0.72069776  0.88917375  0.75130855  1  0  0.127911  0  0.941741  0  0  0.137762  0  0.998737  0  0  0.141092  0  0.995818  0  0  0.124461  0.135383  0  1.0007  0
H  H3  1  0.27930779  0.11082323  0.24869189  1  0  0.127901  0  0.941699  0  0  0.137746  0  0.998711  0  0  0.141074  0  0.995793  0  0  0.12445  0.135371  0  1.000677  0
H  H4  1  0.92960802  0.97059309  0.91656252  1  0  0.097492  0  0.970112  0  0  0.109828  0  1.028106  0  0  0.112498  0  1.02778  0  0  0.108641  0.107713  0  1.029018  0
H  H5  1  0.07039574  0.02940499  0.08343821  1  0  0.097489  0  0.970078  0  0  0.109823  0  1.028073  0  0  0.112492  0  1.027745  0  0  0.108631  0.107697  0  1.029002  0
H  H6  1  0.80141941  0.89233182  0.19553283  1  0  0.085781  0  0.947341  0  0  0.094309  0  1.008767  0  0  0.097336  0  1.005685  0  0  0.122621  0.091999  0  1.011299  0
H  H7  1  0.19857897  0.10766957  0.80446878  1  0  0.085797  0  0.947345  0  0  0.094321  0  1.008766  0  0  0.097343  0  1.005695  0  0  0.122636  0.092011  0  1.011296  0
H  H8  1  0.85109867  0.57271778  0.36770765  1  0  0.432588  0  0.866102  0  0  0.406684  0  0.922746  0  0  0.416544  0  0.90828  0  0  0.29185  0.399771  0  0.933035  0
H  H9  1  0.14889963  0.42728471  0.63229283  1  0  0.432599  0  0.86609  0  0  0.406692  0  0.92274  0  0  0.416551  0  0.908274  0  0  0.291852  0.39978  0  0.933028  0
H  H10  1  0.89440894  0.43928659  0.12498723  1  0  0.2936  0  0.913986  0  0  0.264003  0  0.993507  0  0  0.274165  0  0.984493  0  0  0.324307  0.256927  0  0.999267  0
H  H11  1  0.10558803  0.56071049  0.87501069  1  0  0.293634  0  0.913905  0  0  0.26405  0  0.993442  0  0  0.274212  0  0.984427  0  0  0.324296  0.256973  0  0.999203  0
H  H12  1  0.87667641  0.75397229  0.53897975  1  0  0.435114  0  0.865164  0  0  0.404341  0  0.928936  0  0  0.415553  0  0.912381  0  0  0.302083  0.396341  0  0.940799  0
H  H13  1  0.12332522  0.24603128  0.46101996  1  0  0.435129  0  0.865148  0  0  0.404352  0  0.928923  0  0  0.415565  0  0.912367  0  0  0.302084  0.396353  0  0.940786  0
H  H14  1  0.89568390  0.59993107  0.62709779  1  0  0.432364  0  0.862079  0  0  0.402644  0  0.926994  0  0  0.41381  0  0.910517  0  0  0.303989  0.394592  0  0.938879  0
H  H15  1  0.10431269  0.40007143  0.37290304  1  0  0.432393  0  0.862054  0  0  0.402651  0  0.926988  0  0  0.413817  0  0.910511  0  0  0.303992  0.394595  0  0.938876  0
C  C16  1  0.43631996  0.72122527  0.09148013  1  0  0.111518  0  3.786202  0  0  0.106439  0  4.029339  0  0  0.112299  0  4.046671  0  0  0.120542  0.102086  0  4.018569  0
C  C17  1  0.56368012  0.27877612  0.90852006  1  0  0.111486  0  3.786212  0  0  0.106391  0  4.029363  0  0  0.112252  0  4.046696  0  0  0.120492  0.102038  0  4.018589  0
C  C18  1  0.37376089  0.02440670  0.50530568  1  0  0.557931  0  3.920465  0  0  0.511245  0  4.224446  0  0  0.541111  0  4.214472  0  0  0.214218  0.490967  0  4.230763  0
C  C19  1  0.62624087  0.97559476  0.49468771  1  0  0.55788  0  3.920518  0  0  0.511203  0  4.224502  0  0  0.541069  0  4.214527  0  0  0.214173  0.490923  0  4.230814  0
C  C20  1  0.67197348  0.85501460  0.87093177  1  0  0.027724  0  3.628763  0  0  -0.000446  0  3.875644  0  0  0.006485  0  3.889045  0  0  -0.044821  -0.004806  0  3.867232  0
C  C21  1  0.32803019  0.14498459  0.12906783  1  0  0.027717  0  3.628818  0  0  -0.000461  0  3.875711  0  0  0.00647  0  3.889115  0  0  -0.044837  -0.004824  0  3.867295  0
C  C22  1  0.49213331  0.76188804  0.93596802  1  0  -0.103349  0  3.742911  0  0  -0.087557  0  3.976959  0  0  -0.097011  0  3.998391  0  0  -0.000316  -0.082135  0  3.964721  0
C  C23  1  0.50786687  0.23811223  0.06403436  1  0  -0.103326  0  3.743028  0  0  -0.087531  0  3.977074  0  0  -0.096985  0  3.998508  0  0  -0.000285  -0.08211  0  3.964831  0
C  C24  1  0.36153098  0.70475027  0.84867594  1  0  0.523552  0  3.860064  0  0  0.475602  0  4.144762  0  0  0.504002  0  4.146836  0  0  0.241502  0.456602  0  4.14313  0
C  C25  1  0.63846756  0.29524894  0.15132472  1  0  0.523538  0  3.85996  0  0  0.475558  0  4.144641  0  0  0.503954  0  4.14672  0  0  0.24153  0.456564  0  4.143  0
C  C26  1  0.78673346  0.90069112  0.96372443  1  0  -0.115828  0  3.705555  0  0  -0.131944  0  3.965395  0  0  -0.139206  0  3.985208  0  0  -0.079483  -0.127409  0  3.952681  0
C  C27  1  0.21326850  0.09930808  0.03627552  1  0  -0.115818  0  3.705513  0  0  -0.131932  0  3.965359  0  0  -0.139191  0  3.985171  0  0  -0.079465  -0.127389  0  3.952656  0
C  C28  1  0.25572586  0.62039672  0.16149394  1  0  0.416488  0  3.934185  0  0  0.377027  0  4.230497  0  0  0.396927  0  4.237214  0  0  0.210569  0.364317  0  4.224848  0
C  C29  1  0.74427267  0.37960251  0.83850565  1  0  0.416504  0  3.934182  0  0  0.377035  0  4.230493  0  0  0.396935  0  4.237212  0  0  0.210577  0.364325  0  4.224847  0
C  C30  1  0.71725839  0.85695204  0.11840220  1  0  0.163227  0  3.6827  0  0  0.12854  0  3.953473  0  0  0.137886  0  3.966934  0  0  0.064626  0.122481  0  3.944174  0
C  C31  1  0.28274177  0.14304825  0.88159804  1  0  0.163217  0  3.682718  0  0  0.128536  0  3.953499  0  0  0.137881  0  3.966957  0  0  0.06461  0.122474  0  3.944197  0
N  N32  1  0.54425722  0.77016137  0.18257333  1  0  -0.401472  0  3.200236  0  0  -0.35451  0  3.47036  0  0  -0.367672  0  3.484883  0  0  -0.349401  -0.345056  0  3.460664  0
N  N33  1  0.45573937  0.22984111  0.81742857  1  0  -0.40144  0  3.20021  0  0  -0.354478  0  3.470342  0  0  -0.367639  0  3.484866  0  0  -0.349351  -0.345024  0  3.460645  0
N  N34  1  0.14675552  0.56595426  0.07801634  1  0  -0.286916  0  2.976238  0  0  -0.271086  0  3.25808  0  0  -0.282682  0  3.272643  0  0  -0.227981  -0.263415  0  3.248139  0
N  N35  1  0.85323968  0.43404387  0.92198617  1  0  -0.286979  0  2.976313  0  0  -0.271182  0  3.258135  0  0  -0.282778  0  3.272698  0  0  -0.227985  -0.263506  0  3.248194  0
N  N36  1  0.20418712  0.60950524  0.92742356  1  0  -0.249386  0  3.432038  0  0  -0.192538  0  3.685228  0  0  -0.211034  0  3.699871  0  0  -0.271367  -0.18046  0  3.674425  0
N  N37  1  0.79581142  0.39049396  0.07257817  1  0  -0.249316  0  3.432118  0  0  -0.19237  0  3.685199  0  0  -0.210861  0  3.699841  0  0  -0.271393  -0.1803  0  3.674391  0
O  O38  1  0.25748679  0.93519233  0.46913981  1  0  -0.642788  0  2.032861  0  0  -0.600471  0  2.281756  0  0  -0.622324  0  2.272056  0  0  -0.370056  -0.584053  0  2.286917  0
O  O39  1  0.74251005  0.06480686  0.53086443  1  0  -0.642767  0  2.032843  0  0  -0.600452  0  2.281733  0  0  -0.622304  0  2.27203  0  0  -0.370025  -0.584032  0  2.286891  0
O  O40  1  0.30606913  0.15198256  0.54964690  1  0  -0.666784  0  2.108025  0  0  -0.610071  0  2.344546  0  0  -0.633747  0  2.334567  0  0  -0.339236  -0.593214  0  2.351892  0
O  O41  1  0.69393087  0.84801994  0.45035107  1  0  -0.666721  0  2.108063  0  0  -0.610031  0  2.344595  0  0  -0.633706  0  2.334618  0  0  -0.339214  -0.593173  0  2.351937  0
O  O42  1  0.39017568  0.74159429  0.71074671  1  0  -0.682837  0  2.077023  0  0  -0.63383  0  2.335934  0  0  -0.65859  0  2.32949  0  0  -0.375684  -0.617058  0  2.340652  0
O  O43  1  0.60982123  0.25840382  0.28925651  1  0  -0.682829  0  2.07696  0  0  -0.633828  0  2.335876  0  0  -0.65859  0  2.329437  0  0  -0.375689  -0.617056  0  2.340592  0
O  O44  1  0.20436311  0.58479297  0.30564947  1  0  -0.723775  0  2.094196  0  0  -0.66046  0  2.337041  0  0  -0.68531  0  2.329231  0  0  -0.379208  -0.644154  0  2.341045  0
O  O45  1  0.79563689  0.41520953  0.69434958  1  0  -0.723799  0  2.094146  0  0  -0.660457  0  2.336965  0  0  -0.685313  0  2.329158  0  0  -0.379227  -0.644154  0  2.340974  0
O  O46  1  0.69569688  0.53918048  0.40725717  1  0  -1.17287  0  1.753695  0  0  -1.115731  0  2.005774  0  0  -1.141631  0  1.978535  0  0  -0.817072  -1.094718  0  2.023566  0
O  O47  1  0.30430328  0.46081983  0.59274201  1  0  -1.172891  0  1.753717  0  0  -1.115755  0  2.005811  0  0  -1.141654  0  1.978572  0  0  -0.817078  -1.094742  0  2.023605  0
O  O48  1  0.96919188  0.69430170  0.59566363  1  0  -0.899857  0  1.874972  0  0  -0.852282  0  2.074217  0  0  -0.871502  0  2.041448  0  0  -0.636894  -0.838161  0  2.097053  0
O  O49  1  0.03080813  0.30570077  0.40433756  1  0  -0.899907  0  1.874935  0  0  -0.852285  0  2.074187  0  0  -0.871506  0  2.041415  0  0  -0.63691  -0.838163  0  2.097027  0
