# generated using pymatgen
data_ZnH12C14(N3O2)2
_symmetry_space_group_name_H-M   'P 1'
_cell_length_a   9.60548073
_cell_length_b   9.47105829
_cell_length_c   10.27440407
_cell_angle_alpha   100.13341198
_cell_angle_beta   104.30368964
_cell_angle_gamma   92.89732909
_symmetry_Int_Tables_number   1
_chemical_formula_structural   ZnH12C14(N3O2)2
_chemical_formula_sum   'Zn2 H24 C28 N12 O8'
_cell_volume   887.25857287
_cell_formula_units_Z   2
loop_
 _symmetry_equiv_pos_site_id
 _symmetry_equiv_pos_as_xyz
  1  'x, y, z'
loop_
 _atom_site_type_symbol
 _atom_site_label
 _atom_site_symmetry_multiplicity
 _atom_site_fract_x
 _atom_site_fract_y
 _atom_site_fract_z
 _atom_site_occupancy
 _atom_site_hle17_bader_spin_density
 _atom_site_hle17_ddec_charge
 _atom_site_hle17_ddec_spin_density
 _atom_site_hle17_ddec_sum_bond_order
 _atom_site_hle17_magmom
 _atom_site_hse06_10hf_bader_spin_density
 _atom_site_hse06_10hf_ddec_charge
 _atom_site_hse06_10hf_ddec_spin_density
 _atom_site_hse06_10hf_ddec_sum_bond_order
 _atom_site_hse06_10hf_magmom
 _atom_site_hse06_bader_spin_density
 _atom_site_hse06_ddec_charge
 _atom_site_hse06_ddec_spin_density
 _atom_site_hse06_ddec_sum_bond_order
 _atom_site_hse06_magmom
 _atom_site_pbe_bader_spin_density
 _atom_site_pbe_cm5_charge
 _atom_site_pbe_ddec_charge
 _atom_site_pbe_ddec_spin_density
 _atom_site_pbe_ddec_sum_bond_order
 _atom_site_pbe_magmom
Zn  Zn0  1  0.43086705  0.26294324  0.32425231  1  0  0.994969  0  1.910435  0  0  0.80726  0  2.392033  0  0  0.853816  0  2.337648  0  0  0.69024  0.774918  0  2.428766  0
Zn  Zn1  1  0.56913836  0.73705620  0.67575077  1  0  0.994963  0  1.910397  0  0  0.807279  0  2.392006  0  0  0.853837  0  2.337616  0  0  0.690216  0.774924  0  2.428749  0
H  H2  1  0.23883335  0.61843290  0.14232493  1  0  0.091305  0  0.989306  0  0  0.092824  0  1.06683  0  0  0.096936  0  1.063819  0  0  0.09609  0.089591  0  1.069743  0
H  H3  1  0.76117227  0.38156867  0.85768052  1  0  0.091261  0  0.98922  0  0  0.092783  0  1.066746  0  0  0.096891  0  1.063743  0  0  0.096062  0.08955  0  1.069657  0
H  H4  1  0.93549489  0.24058495  0.99270622  1  0  0.099851  0  0.949698  0  0  0.108399  0  1.011892  0  0  0.112559  0  1.008538  0  0  0.103149  0.105703  0  1.013806  0
H  H5  1  0.06451405  0.75941772  0.00729921  1  0  0.099864  0  0.949605  0  0  0.108429  0  1.011795  0  0  0.112587  0  1.008443  0  0  0.103161  0.105741  0  1.0137  0
H  H6  1  0.82880484  0.43839790  0.63213222  1  0  0.096359  0  0.969082  0  0  0.104222  0  1.034612  0  0  0.107206  0  1.033268  0  0  0.097114  0.10185  0  1.036334  0
H  H7  1  0.17119413  0.56160158  0.36786549  1  0  0.096386  0  0.968997  0  0  0.104273  0  1.034502  0  0  0.107256  0  1.033158  0  0  0.097149  0.1019  0  1.036224  0
H  H8  1  0.92409263  0.43756851  0.24576714  1  0  0.094898  0  0.97719  0  0  0.102759  0  1.043692  0  0  0.105495  0  1.043075  0  0  0.097489  0.100605  0  1.044538  0
H  H9  1  0.07590450  0.56243421  0.75422974  1  0  0.094871  0  0.977174  0  0  0.102694  0  1.043712  0  0  0.10543  0  1.043098  0  0  0.097461  0.100543  0  1.044554  0
H  H10  1  0.22617632  0.96306826  0.18677577  1  0  0.113569  0  0.914995  0  0  0.127006  0  0.96633  0  0  0.128857  0  0.964245  0  0  0.146983  0.1255  0  0.967927  0
H  H11  1  0.77381748  0.03693335  0.81322208  1  0  0.113572  0  0.915093  0  0  0.126966  0  0.966472  0  0  0.128815  0  0.964387  0  0  0.146965  0.125454  0  0.96807  0
H  H12  1  0.66125734  0.06596902  0.20059002  1  0  0.129538  0  0.913794  0  0  0.141464  0  0.969569  0  0  0.143988  0  0.965902  0  0  0.153729  0.139273  0  0.972031  0
H  H13  1  0.33874280  0.93403148  0.79941300  1  0  0.129516  0  0.913858  0  0  0.141449  0  0.969626  0  0  0.143967  0  0.965968  0  0  0.153741  0.139268  0  0.972074  0
H  H14  1  0.86310071  0.85426677  0.57595616  1  0  0.10662  0  0.903362  0  0  0.120456  0  0.953495  0  0  0.122087  0  0.95207  0  0  0.14538  0.11899  0  0.954823  0
H  H15  1  0.13689805  0.14573056  0.42404112  1  0  0.106622  0  0.903308  0  0  0.12048  0  0.953417  0  0  0.122113  0  0.951991  0  0  0.145372  0.119014  0  0.954745  0
H  H16  1  0.47033496  0.60975332  0.35663535  1  0  0.132799  0  0.930043  0  0  0.138733  0  0.997805  0  0  0.14218  0  0.992198  0  0  0.148856  0.135732  0  1.001836  0
H  H17  1  0.52966380  0.39024400  0.64336291  1  0  0.132831  0  0.930068  0  0  0.138772  0  0.997811  0  0  0.142216  0  0.992209  0  0  0.148866  0.135774  0  1.001836  0
H  H18  1  0.71222464  0.81681257  0.08645611  1  0  0.101575  0  0.900992  0  0  0.116778  0  0.958766  0  0  0.117163  0  0.957952  0  0  0.125696  0.116359  0  0.958568  0
H  H19  1  0.28777121  0.18318796  0.91354300  1  0  0.101545  0  0.901094  0  0  0.11678  0  0.958827  0  0  0.117166  0  0.958011  0  0  0.125695  0.116363  0  0.958625  0
H  H20  1  0.55541388  0.72059556  0.96345310  1  0  0.112762  0  0.938015  0  0  0.122546  0  1.007971  0  0  0.123899  0  1.005943  0  0  0.121542  0.121553  0  1.008627  0
H  H21  1  0.44458207  0.27940606  0.03654525  1  0  0.112851  0  0.937944  0  0  0.122596  0  1.00796  0  0  0.123947  0  1.005935  0  0  0.12157  0.121607  0  1.008609  0
H  H22  1  0.50928114  0.57320147  0.12540306  1  0  0.106062  0  0.912219  0  0  0.120406  0  0.974636  0  0  0.121227  0  0.973253  0  0  0.127682  0.119581  0  0.97495  0
H  H23  1  0.49071558  0.42679693  0.87459394  1  0  0.10607  0  0.912186  0  0  0.120431  0  0.974618  0  0  0.121255  0  0.973235  0  0  0.127685  0.119607  0  0.974926  0
H  H24  1  0.69297286  0.56540498  0.12067055  1  0  0.113546  0  0.901379  0  0  0.129064  0  0.959551  0  0  0.129062  0  0.959578  0  0  0.127486  0.128774  0  0.958862  0
H  H25  1  0.30702406  0.43459557  0.87932688  1  0  0.113536  0  0.901396  0  0  0.12907  0  0.959614  0  0  0.12907  0  0.959643  0  0  0.127477  0.128785  0  0.95892  0
C  C26  1  0.19956148  0.33563636  0.15779761  1  0  0.624041  0  3.929898  0  0  0.577802  0  4.219745  0  0  0.610661  0  4.214574  0  0  0.195203  0.55565  0  4.222319  0
C  C27  1  0.80044737  0.66436526  0.84220567  1  0  0.624055  0  3.929845  0  0  0.577794  0  4.219735  0  0  0.610655  0  4.214566  0  0  0.195193  0.55565  0  4.222299  0
C  C28  1  0.09779190  0.42040474  0.07472195  1  0  -0.060949  0  3.759542  0  0  -0.035489  0  3.984557  0  0  -0.042416  0  4.007968  0  0  -0.016196  -0.031464  0  3.969259  0
C  C29  1  0.90221597  0.57959792  0.92528323  1  0  -0.06082  0  3.75945  0  0  -0.035323  0  3.984426  0  0  -0.042247  0  4.007838  0  0  -0.016125  -0.031298  0  3.969123  0
C  C30  1  0.13402393  0.56698156  0.08028798  1  0  -0.076987  0  3.744511  0  0  -0.100942  0  3.997037  0  0  -0.101607  0  4.016496  0  0  -0.088691  -0.10072  0  3.984806  0
C  C31  1  0.86598500  0.43302106  0.91972037  1  0  -0.077036  0  3.744383  0  0  -0.101002  0  3.996932  0  0  -0.101673  0  4.016408  0  0  -0.088719  -0.100775  0  3.98469  0
C  C32  1  0.96300024  0.35385991  0.99399336  1  0  -0.067627  0  3.730328  0  0  -0.090146  0  3.976271  0  0  -0.090776  0  3.995367  0  0  -0.083031  -0.089307  0  3.963528  0
C  C33  1  0.03700763  0.64614277  0.00601086  1  0  -0.067702  0  3.730319  0  0  -0.090254  0  3.976269  0  0  -0.090885  0  3.995369  0  0  -0.083064  -0.089424  0  3.96353  0
C  C34  1  0.71342191  0.36123815  0.35758600  1  0  0.622898  0  3.939607  0  0  0.577031  0  4.23069  0  0  0.610581  0  4.223566  0  0  0.191082  0.554659  0  4.234062  0
C  C35  1  0.28657607  0.63876234  0.64241652  1  0  0.622865  0  3.939559  0  0  0.577037  0  4.230602  0  0  0.610586  0  4.223481  0  0  0.191104  0.554662  0  4.233981  0
C  C36  1  0.86214151  0.43098259  0.43181726  1  0  -0.063892  0  3.762562  0  0  -0.041548  0  3.992425  0  0  -0.048298  0  4.01544  0  0  -0.024509  -0.037036  0  3.976326  0
C  C37  1  0.13785532  0.56901691  0.56817898  1  0  -0.063937  0  3.762537  0  0  -0.041639  0  3.992448  0  0  -0.048388  0  4.015465  0  0  -0.024573  -0.037127  0  3.976353  0
C  C38  1  0.90472365  0.46582245  0.57534009  1  0  -0.074705  0  3.733024  0  0  -0.096573  0  3.981696  0  0  -0.097794  0  4.003042  0  0  -0.091624  -0.095698  0  3.96721  0
C  C39  1  0.09527456  0.53418027  0.42465800  1  0  -0.074728  0  3.732828  0  0  -0.096603  0  3.981533  0  0  -0.097827  0  4.00288  0  0  -0.091658  -0.095728  0  3.96705  0
C  C40  1  0.95856960  0.46549557  0.35708290  1  0  -0.075596  0  3.744804  0  0  -0.099718  0  3.995851  0  0  -0.100679  0  4.016987  0  0  -0.089781  -0.098279  0  3.980934  0
C  C41  1  0.04142850  0.53450610  0.64291304  1  0  -0.075555  0  3.744834  0  0  -0.099622  0  3.995887  0  0  -0.100587  0  4.017027  0  0  -0.089746  -0.098191  0  3.980977  0
C  C42  1  0.33499283  0.95174966  0.17656043  1  0  0.19523  0  3.698822  0  0  0.14308  0  3.977502  0  0  0.154455  0  3.988654  0  0  0.155149  0.135993  0  3.967949  0
C  C43  1  0.66500829  0.04824981  0.82343875  1  0  0.195294  0  3.698763  0  0  0.143188  0  3.97743  0  0  0.154565  0  3.98858  0  0  0.155146  0.136111  0  3.967867  0
C  C44  1  0.55652197  0.00749122  0.18550621  1  0  0.179538  0  3.610987  0  0  0.095739  0  3.877912  0  0  0.12129  0  3.892242  0  0  0.169862  0.085927  0  3.870631  0
C  C45  1  0.44347141  0.99250604  0.81449371  1  0  0.179682  0  3.610776  0  0  0.095888  0  3.877688  0  0  0.121436  0  3.89202  0  0  0.169865  0.086071  0  3.870402  0
C  C46  1  0.77636640  0.79527905  0.49221311  1  0  0.208971  0  3.702132  0  0  0.155649  0  3.990675  0  0  0.167297  0  4.001259  0  0  0.153103  0.148333  0  3.981191  0
C  C47  1  0.22363128  0.20471827  0.50778392  1  0  0.208992  0  3.701977  0  0  0.155641  0  3.990525  0  0  0.167289  0  4.001112  0  0  0.153137  0.148338  0  3.981026  0
C  C48  1  0.57580893  0.67068165  0.38458607  1  0  0.18869  0  3.594077  0  0  0.108313  0  3.858237  0  0  0.134399  0  3.872821  0  0  0.171801  0.09895  0  3.850673  0
C  C49  1  0.42419004  0.32931783  0.61541164  1  0  0.188557  0  3.594148  0  0  0.108159  0  3.858289  0  0  0.134237  0  3.872878  0  0  0.171756  0.098805  0  3.850724  0
C  C50  1  0.60488638  0.76191349  0.07287001  1  0  -0.039502  0  3.60462  0  0  -0.117654  0  3.868735  0  0  -0.104382  0  3.878894  0  0  -0.03945  -0.119687  0  3.861547  0
C  C51  1  0.39510936  0.23808598  0.92712792  1  0  -0.039573  0  3.604757  0  0  -0.1177  0  3.868902  0  0  -0.10443  0  3.879061  0  0  -0.03948  -0.119744  0  3.861725  0
C  C52  1  0.61422861  0.63667246  0.14926691  1  0  -0.029344  0  3.592116  0  0  -0.106772  0  3.851793  0  0  -0.092187  0  3.862581  0  0  -0.036941  -0.108801  0  3.844697  0
C  C53  1  0.38576822  0.36332703  0.85072933  1  0  -0.029351  0  3.592076  0  0  -0.10693  0  3.851928  0  0  -0.092342  0  3.862688  0  0  -0.036936  -0.108942  0  3.844805  0
N  N54  1  0.51747995  0.86894252  0.12382318  1  0  0.041069  0  3.572662  0  0  0.155503  0  3.772054  0  0  0.11552  0  3.833286  0  0  -0.131329  0.16239  0  3.755323  0
N  N55  1  0.48251620  0.13106123  0.87617754  1  0  0.041148  0  3.572597  0  0  0.155598  0  3.771942  0  0  0.115622  0  3.833165  0  0  -0.131228  0.162484  0  3.755208  0
N  N56  1  0.37698304  0.83131177  0.11785934  1  0  -0.243629  0  2.858852  0  0  -0.238373  0  3.124363  0  0  -0.237989  0  3.145255  0  0  -0.206779  -0.232467  0  3.114375  0
N  N57  1  0.62301291  0.16868983  0.88213998  1  0  -0.243766  0  2.858855  0  0  -0.238521  0  3.124358  0  0  -0.238141  0  3.145245  0  0  -0.206827  -0.232613  0  3.114363  0
N  N58  1  0.44224036  0.06314936  0.22001846  1  0  -0.404737  0  3.283709  0  0  -0.325232  0  3.595134  0  0  -0.346395  0  3.600038  0  0  -0.348087  -0.311065  0  3.58921  0
N  N59  1  0.55775742  0.93684897  0.77998364  1  0  -0.404842  0  3.283622  0  0  -0.325359  0  3.595072  0  0  -0.346517  0  3.599968  0  0  -0.348105  -0.311189  0  3.589151  0
N  N60  1  0.65513112  0.68764271  0.29676639  1  0  0.040046  0  3.574729  0  0  0.159801  0  3.764575  0  0  0.115966  0  3.831444  0  0  -0.133517  0.166443  0  3.747958  0
N  N61  1  0.34486570  0.31235676  0.70323179  1  0  0.040148  0  3.574648  0  0  0.159999  0  3.764421  0  0  0.116186  0  3.831277  0  0  -0.133496  0.166596  0  3.747881  0
N  N62  1  0.78310285  0.76808102  0.36292886  1  0  -0.276996  0  2.829139  0  0  -0.282473  0  3.093973  0  0  -0.27968  0  3.114201  0  0  -0.227991  -0.277265  0  3.084563  0
N  N63  1  0.21689505  0.23191848  0.63706762  1  0  -0.277078  0  2.829177  0  0  -0.282567  0  3.093996  0  0  -0.279781  0  3.114223  0  0  -0.228012  -0.277353  0  3.084593  0
N  N64  1  0.65007798  0.73828190  0.51009833  1  0  -0.403381  0  3.243378  0  0  -0.324293  0  3.549996  0  0  -0.346213  0  3.556419  0  0  -0.34659  -0.309584  0  3.542539  0
N  N65  1  0.34992088  0.26171650  0.48989917  1  0  -0.403328  0  3.24333  0  0  -0.324229  0  3.549943  0  0  -0.346151  0  3.556374  0  0  -0.346601  -0.309522  0  3.542481  0
O  O66  1  0.33044244  0.39813225  0.21448047  1  0  -0.662086  0  2.030259  0  0  -0.589369  0  2.305331  0  0  -0.617755  0  2.29045  0  0  -0.339587  -0.569553  0  2.314577  0
O  O67  1  0.66956641  0.60186936  0.78552281  1  0  -0.662102  0  2.030232  0  0  -0.589393  0  2.305292  0  0  -0.617779  0  2.290408  0  0  -0.339594  -0.56958  0  2.314543  0
O  O68  1  0.15943441  0.21210002  0.17085801  1  0  -0.621324  0  1.890533  0  0  -0.578218  0  2.109123  0  0  -0.60042  0  2.100124  0  0  -0.331519  -0.562715  0  2.114213  0
O  O69  1  0.84057347  0.78790268  0.82914524  1  0  -0.621356  0  1.890492  0  0  -0.578232  0  2.109082  0  0  -0.600429  0  2.100073  0  0  -0.331543  -0.562727  0  2.114161  0
O  O70  1  0.62679916  0.34445079  0.43447311  1  0  -0.664586  0  2.042488  0  0  -0.590417  0  2.310759  0  0  -0.619262  0  2.296591  0  0  -0.347009  -0.570396  0  2.319397  0
O  O71  1  0.37320734  0.65553781  0.56553321  1  0  -0.66464  0  2.042495  0  0  -0.590488  0  2.310761  0  0  -0.619335  0  2.296592  0  0  -0.347026  -0.57046  0  2.319398  0
O  O72  1  0.67712684  0.32442550  0.22938103  1  0  -0.62897  0  1.901683  0  0  -0.587582  0  2.130249  0  0  -0.608756  0  2.120724  0  0  -0.334961  -0.572708  0  2.135996  0
O  O73  1  0.32286103  0.67558147  0.77061735  1  0  -0.628842  0  1.901624  0  0  -0.587481  0  2.130192  0  0  -0.608652  0  2.120671  0  0  -0.334929  -0.572602  0  2.135939  0
