# generated using pymatgen
data_Cu3H18C8SN2Cl3O
_symmetry_space_group_name_H-M   'P 1'
_cell_length_a   10.63215174
_cell_length_b   11.32270450
_cell_length_c   12.74920000
_cell_angle_alpha   90.00000000
_cell_angle_beta   90.00000000
_cell_angle_gamma   106.88306220
_symmetry_Int_Tables_number   1
_chemical_formula_structural   Cu3H18C8SN2Cl3O
_chemical_formula_sum   'Cu12 H72 C32 S4 N8 Cl12 O4'
_cell_volume   1468.65771825
_cell_formula_units_Z   4
loop_
 _symmetry_equiv_pos_site_id
 _symmetry_equiv_pos_as_xyz
  1  'x, y, z'
loop_
 _atom_site_type_symbol
 _atom_site_label
 _atom_site_symmetry_multiplicity
 _atom_site_fract_x
 _atom_site_fract_y
 _atom_site_fract_z
 _atom_site_occupancy
 _atom_site_hle17_bader_spin_density
 _atom_site_hle17_ddec_charge
 _atom_site_hle17_ddec_spin_density
 _atom_site_hle17_ddec_sum_bond_order
 _atom_site_hle17_magmom
 _atom_site_hse06_10hf_bader_spin_density
 _atom_site_hse06_10hf_ddec_charge
 _atom_site_hse06_10hf_ddec_spin_density
 _atom_site_hse06_10hf_ddec_sum_bond_order
 _atom_site_hse06_10hf_magmom
 _atom_site_hse06_bader_spin_density
 _atom_site_hse06_ddec_charge
 _atom_site_hse06_ddec_spin_density
 _atom_site_hse06_ddec_sum_bond_order
 _atom_site_hse06_magmom
 _atom_site_pbe_bader_charge
 _atom_site_pbe_bader_spin_density
 _atom_site_pbe_cm5_charge
 _atom_site_pbe_ddec_charge
 _atom_site_pbe_ddec_spin_density
 _atom_site_pbe_ddec_sum_bond_order
 _atom_site_pbe_magmom
Cu  Cu0  1  0.08124911  0.79503613  0.41432639  1  0  0.312502  0  1.985221  0  0  0.21109  0  2.46311  0  0  0.21544  0  2.416514  0  0.570277  0  0.389877  0.209746  0  2.494072  0
Cu  Cu1  1  0.41875126  0.70496433  0.91432639  1  0  0.312538  0  1.985198  0  0  0.211125  0  2.463099  0  0  0.215456  0  2.416498  0  0.570283  0  0.389874  0.209765  0  2.494051  0
Cu  Cu2  1  0.91874999  0.20496387  0.58567440  1  0  0.312492  0  1.98524  0  0  0.211053  0  2.463144  0  0  0.215427  0  2.416556  0  0.57035  0  0.389879  0.209732  0  2.494115  0
Cu  Cu3  1  0.58124973  0.29503567  0.08567204  1  0  0.312562  0  1.985177  0  0  0.211142  0  2.463084  0  0  0.215493  0  2.416482  0  0.570379  0  0.389898  0.209796  0  2.494053  0
Cu  Cu4  1  0.17677505  0.46976978  0.41937847  1  0  0.367832  0  2.041406  0  0  0.287674  0  2.518294  0  0  0.294361  0  2.466899  0  0.574045  0  0.323777  0.283534  0  2.553076  0
Cu  Cu5  1  0.32322728  0.03023160  0.91937926  1  0  0.367865  0  2.041416  0  0  0.28771  0  2.518304  0  0  0.294394  0  2.466911  0  0.574074  0  0.323806  0.283567  0  2.553091  0
Cu  Cu6  1  0.82322688  0.53023021  0.58061996  1  0  0.36786  0  2.041408  0  0  0.287705  0  2.518301  0  0  0.29439  0  2.466901  0  0.573932  0  0.323796  0.283557  0  2.553101  0
Cu  Cu7  1  0.67677276  0.96976840  0.08061996  1  0  0.367842  0  2.041445  0  0  0.28769  0  2.518333  0  0  0.294375  0  2.466934  0  0.573962  0  0.323793  0.283547  0  2.553128  0
Cu  Cu8  1  0.06633433  0.53812892  0.58245694  1  0  0.290071  0  2.108474  0  0  0.210445  0  2.589734  0  0  0.235134  0  2.51706  0  0.481115  0  0.230427  0.195259  0  2.638419  0
Cu  Cu9  1  0.43366604  0.96187154  0.08245851  1  0  0.290089  0  2.108495  0  0  0.210465  0  2.589745  0  0  0.235141  0  2.51707  0  0.481188  0  0.230431  0.195282  0  2.638428  0
Cu  Cu10  1  0.93366637  0.46187016  0.41754149  1  0  0.29012  0  2.108436  0  0  0.210497  0  2.589685  0  0  0.235148  0  2.517013  0  0.481328  0  0.230429  0.195313  0  2.63837  0
Cu  Cu11  1  0.56633335  0.03812938  0.91754149  1  0  0.290083  0  2.10851  0  0  0.21045  0  2.58977  0  0  0.235109  0  2.517093  0  0.481264  0  0.230413  0.195268  0  2.638455  0
H  H12  1  0.26502975  0.24130363  0.38153923  1  0  0.079803  0  0.931882  0  0  0.094131  0  0.996218  0  0  0.094684  0  0.996488  0  0.055028  0  0.102784  0.093454  0  0.996467  0
H  H13  1  0.23497013  0.25869591  0.88154080  1  0  0.079818  0  0.931858  0  0  0.094161  0  0.996171  0  0  0.094717  0  0.996436  0  0.055032  0  0.102777  0.093484  0  0.99642  0
H  H14  1  0.73497434  0.75869729  0.61846233  1  0  0.079768  0  0.931805  0  0  0.094111  0  0.996142  0  0  0.094662  0  0.996413  0  0.055035  0  0.102754  0.093433  0  0.996391  0
H  H15  1  0.76502615  0.74130409  0.11845920  1  0  0.079821  0  0.931792  0  0  0.094187  0  0.99609  0  0  0.094731  0  0.996365  0  0.055017  0  0.102778  0.09351  0  0.996339  0
H  H16  1  0.40278494  0.35605910  0.43251028  1  0  0.071905  0  0.920878  0  0  0.087297  0  0.982531  0  0  0.087947  0  0.982347  0  0.049526  0  0.099669  0.08673  0  0.982866  0
H  H17  1  0.09721559  0.14393951  0.93251184  1  0  0.071921  0  0.920863  0  0  0.087291  0  0.982532  0  0  0.08794  0  0.982351  0  0.049526  0  0.099679  0.086724  0  0.982865  0
H  H18  1  0.59721792  0.64394089  0.56748972  1  0  0.071893  0  0.920896  0  0  0.087298  0  0.982534  0  0  0.087945  0  0.982352  0  0.049557  0  0.099679  0.086731  0  0.982868  0
H  H19  1  0.90278257  0.85606048  0.06748972  1  0  0.071903  0  0.920919  0  0  0.087292  0  0.982563  0  0  0.087938  0  0.982381  0  0.049547  0  0.099682  0.086726  0  0.982895  0
H  H20  1  0.53994909  0.29359585  0.31482603  1  0  0.071412  0  0.954085  0  0  0.088961  0  1.015298  0  0  0.088419  0  1.016755  0  0.090908  0  0.094174  0.089145  0  1.014479  0
H  H21  1  0.96005062  0.20640369  0.81482760  1  0  0.071401  0  0.954036  0  0  0.088965  0  1.015261  0  0  0.088423  0  1.016717  0  0.090904  0  0.094181  0.089149  0  1.014443  0
H  H22  1  0.46005255  0.70640323  0.68517397  1  0  0.071362  0  0.954152  0  0  0.088952  0  1.015345  0  0  0.088414  0  1.016799  0  0.090944  0  0.094163  0.089137  0  1.014528  0
H  H23  1  0.03994725  0.79359538  0.18517319  1  0  0.071415  0  0.954049  0  0  0.088969  0  1.015292  0  0  0.088428  0  1.016747  0  0.090931  0  0.094192  0.089153  0  1.014474  0
H  H24  1  0.40224630  0.17934431  0.26352791  1  0  0.077693  0  0.942313  0  0  0.09191  0  1.006054  0  0  0.091753  0  1.007152  0  0.088665  0  0.096678  0.091771  0  1.005646  0
H  H25  1  0.09775330  0.32065430  0.76352948  1  0  0.077673  0  0.942279  0  0  0.091901  0  1.006032  0  0  0.091744  0  1.00713  0  0.088707  0  0.096672  0.091765  0  1.005623  0
H  H26  1  0.59775412  0.82065384  0.73647288  1  0  0.077698  0  0.942349  0  0  0.091927  0  1.006078  0  0  0.091772  0  1.007174  0  0.088703  0  0.096694  0.091791  0  1.005669  0
H  H27  1  0.90224364  0.67934477  0.23647209  1  0  0.077668  0  0.94233  0  0  0.091893  0  1.006078  0  0  0.091737  0  1.007177  0  0.088694  0  0.096685  0.091758  0  1.00567  0
H  H28  1  0.46939417  0.55759878  0.35789383  1  0  0.070148  0  0.923072  0  0  0.085607  0  0.985231  0  0  0.086552  0  0.984503  0  0.043025  0  0.099009  0.084593  0  0.986243  0
H  H29  1  0.03060788  0.94239798  0.85789383  1  0  0.070172  0  0.923045  0  0  0.085613  0  0.985187  0  0  0.086557  0  0.984459  0  0.043001  0  0.099027  0.084599  0  0.986199  0
H  H30  1  0.53060812  0.44239937  0.64210696  1  0  0.070194  0  0.923065  0  0  0.085615  0  0.985219  0  0  0.086559  0  0.984492  0  0.043038  0  0.099019  0.0846  0  0.986233  0
H  H31  1  0.96939376  0.05760109  0.14210460  1  0  0.070167  0  0.92299  0  0  0.085615  0  0.985156  0  0  0.086562  0  0.984426  0  0.043016  0  0.099009  0.084601  0  0.986169  0
H  H32  1  0.37965656  0.59557126  0.25114831  1  0  0.06473  0  0.954082  0  0  0.078812  0  1.023102  0  0  0.078665  0  1.023837  0  0.057235  0  0.092606  0.078562  0  1.023046  0
H  H33  1  0.12034475  0.90442920  0.75114831  1  0  0.064773  0  0.954096  0  0  0.078841  0  1.023083  0  0  0.078691  0  1.023819  0  0.057221  0  0.092629  0.078591  0  1.023027  0
H  H34  1  0.62034565  0.40442966  0.74885091  1  0  0.064845  0  0.954115  0  0  0.078896  0  1.023107  0  0  0.078749  0  1.023842  0  0.057216  0  0.092644  0.078646  0  1.023051  0
H  H35  1  0.87965623  0.09557080  0.24885012  1  0  0.064797  0  0.954169  0  0  0.078864  0  1.023163  0  0  0.078718  0  1.023902  0  0.057261  0  0.092635  0.078616  0  1.023106  0
H  H36  1  0.51472943  0.53316431  0.13164826  1  0  0.071053  0  0.936749  0  0  0.085171  0  1.005262  0  0  0.08632  0  1.003356  0  0.06334  0  0.096585  0.084059  0  1.007099  0
H  H37  1  0.98526956  0.96683523  0.63164904  1  0  0.071015  0  0.936818  0  0  0.085161  0  1.005293  0  0  0.08631  0  1.003385  0  0.063353  0  0.096587  0.08405  0  1.007133  0
H  H38  1  0.48527033  0.46683477  0.86835174  1  0  0.071039  0  0.936763  0  0  0.085182  0  1.005253  0  0  0.086334  0  1.003343  0  0.063332  0  0.096593  0.084072  0  1.007092  0
H  H39  1  0.01472983  0.03316569  0.36834939  1  0  0.071059  0  0.936783  0  0  0.085156  0  1.005309  0  0  0.086305  0  1.003405  0  0.063328  0  0.096593  0.084047  0  1.007148  0
H  H40  1  0.60670225  0.49870278  0.23801337  1  0  0.072922  0  0.954873  0  0  0.086838  0  1.020688  0  0  0.08749  0  1.020447  0  0.067661  0  0.092606  0.086349  0  1.020831  0
H  H41  1  0.89329718  0.00129584  0.73801572  1  0  0.072901  0  0.95488  0  0  0.08681  0  1.02071  0  0  0.08746  0  1.020468  0  0.06763  0  0.092605  0.086321  0  1.020854  0
H  H42  1  0.39329816  0.50129537  0.76198585  1  0  0.072898  0  0.95492  0  0  0.086831  0  1.020722  0  0  0.087484  0  1.020479  0  0.067669  0  0.092623  0.086342  0  1.020865  0
H  H43  1  0.10670287  0.99870416  0.26198507  1  0  0.072913  0  0.954875  0  0  0.08682  0  1.020703  0  0  0.087472  0  1.02046  0  0.06765  0  0.092607  0.086332  0  1.020846  0
H  H44  1  0.19494461  0.44157055  0.18003483  1  0  0.066891  0  0.953484  0  0  0.081327  0  1.0201  0  0  0.081318  0  1.020688  0  0.039851  0  0.097276  0.08142  0  1.019297  0
H  H45  1  0.30505556  0.05842991  0.68003483  1  0  0.066862  0  0.953523  0  0  0.081326  0  1.020097  0  0  0.081315  0  1.020686  0  0.039853  0  0.097273  0.08142  0  1.019293  0
H  H46  1  0.80505675  0.55842760  0.81996517  1  0  0.066887  0  0.953489  0  0  0.081295  0  1.020113  0  0  0.081285  0  1.020702  0  0.03982  0  0.097271  0.08139  0  1.019308  0
H  H47  1  0.69494449  0.94157008  0.31996282  1  0  0.066944  0  0.953627  0  0  0.081388  0  1.020196  0  0  0.081378  0  1.020783  0  0.03982  0  0.097295  0.081482  0  1.019392  0
H  H48  1  0.14446359  0.29133275  0.23590500  1  0  0.072711  0  0.933973  0  0  0.093418  0  0.986138  0  0  0.093053  0  0.987751  0  0.055852  0  0.098442  0.093544  0  0.985077  0
H  H49  1  0.35553563  0.20866771  0.73590500  1  0  0.072736  0  0.933966  0  0  0.093433  0  0.986135  0  0  0.093066  0  0.987749  0  0.055844  0  0.098454  0.093559  0  0.985074  0
H  H50  1  0.85553805  0.70866633  0.76409579  1  0  0.072727  0  0.933964  0  0  0.093418  0  0.986126  0  0  0.093053  0  0.987738  0  0.055851  0  0.098442  0.093544  0  0.985065  0
H  H51  1  0.64446282  0.79133320  0.26409422  1  0  0.072753  0  0.933971  0  0  0.093455  0  0.986134  0  0  0.093079  0  0.987757  0  0.055854  0  0.098449  0.09358  0  0.985073  0
H  H52  1  0.28316539  0.22827603  0.11721677  1  0  0.073444  0  0.967547  0  0  0.085205  0  1.036474  0  0  0.086094  0  1.036185  0  0.058746  0  0.090393  0.084364  0  1.036869  0
H  H53  1  0.21683326  0.27172259  0.61721677  1  0  0.073481  0  0.967481  0  0  0.085243  0  1.036395  0  0  0.086131  0  1.036106  0  0.058784  0  0.090417  0.08439  0  1.036802  0
H  H54  1  0.71683568  0.77172120  0.88278402  1  0  0.073447  0  0.967437  0  0  0.085205  0  1.036376  0  0  0.086093  0  1.036088  0  0.058783  0  0.090392  0.084356  0  1.036779  0
H  H55  1  0.78316425  0.72827833  0.38278323  1  0  0.073456  0  0.967443  0  0  0.085208  0  1.036373  0  0  0.086095  0  1.036084  0  0.05879  0  0.090391  0.084357  0  1.036778  0
H  H56  1  0.33015630  0.37916544  0.06247059  1  0  0.078222  0  0.944529  0  0  0.090168  0  1.012437  0  0  0.091608  0  1.010845  0  0.08563  0  0.099996  0.088852  0  1.013952  0
H  H57  1  0.16984235  0.12083318  0.56247137  1  0  0.078217  0  0.944529  0  0  0.090168  0  1.012423  0  0  0.091598  0  1.010842  0  0.085619  0  0.100008  0.088855  0  1.013934  0
H  H58  1  0.66984505  0.62083271  0.93753020  1  0  0.078197  0  0.944524  0  0  0.090156  0  1.012421  0  0  0.09159  0  1.010833  0  0.085588  0  0.099988  0.08883  0  1.013953  0
H  H59  1  0.83015610  0.87916774  0.43752863  1  0  0.078213  0  0.944534  0  0  0.090166  0  1.01242  0  0  0.091585  0  1.010849  0  0.085602  0  0.099999  0.088847  0  1.013938  0
H  H60  1  0.33058823  0.73437357  0.52966147  1  0  0.139962  0  0.981412  0  0  0.153297  0  1.050759  0  0  0.156473  0  1.048862  0  0.085476  0  0.087162  0.150786  0  1.052468  0
H  H61  1  0.16941091  0.76562596  0.02966068  1  0  0.139948  0  0.981432  0  0  0.153276  0  1.05079  0  0  0.156455  0  1.048889  0  0.08548  0  0.087157  0.150765  0  1.0525  0
H  H62  1  0.66940993  0.26562643  0.47033853  1  0  0.139988  0  0.981364  0  0  0.153322  0  1.050707  0  0  0.156499  0  1.048809  0  0.0855  0  0.087182  0.15081  0  1.052419  0
H  H63  1  0.83059036  0.23437496  0.97033932  1  0  0.139956  0  0.98144  0  0  0.153297  0  1.050776  0  0  0.156472  0  1.048883  0  0.085503  0  0.087184  0.150785  0  1.052487  0
H  H64  1  0.30876489  0.84909766  0.61822938  1  0  0.146355  0  0.954104  0  0  0.160431  0  1.019126  0  0  0.162896  0  1.018841  0  0.090871  0  0.09031  0.158534  0  1.019555  0
H  H65  1  0.19123331  0.65090187  0.11822938  1  0  0.146352  0  0.954073  0  0  0.160423  0  1.019106  0  0  0.16289  0  1.018819  0  0.090896  0  0.090317  0.158528  0  1.019534  0
H  H66  1  0.69123204  0.15090141  0.38177062  1  0  0.146395  0  0.954083  0  0  0.160469  0  1.019103  0  0  0.162934  0  1.018817  0  0.090894  0  0.09033  0.158573  0  1.019531  0
H  H67  1  0.80876702  0.34909905  0.88177062  1  0  0.146331  0  0.954096  0  0  0.160406  0  1.019126  0  0  0.162872  0  1.01884  0  0.090896  0  0.090315  0.15851  0  1.019555  0
H  H68  1  0.46198665  0.87741504  0.54626486  1  0  0.160608  0  0.957158  0  0  0.176944  0  1.011519  0  0  0.18052  0  1.010656  0  0.097224  0  0.100702  0.174235  0  1.012358  0
H  H69  1  0.03801250  0.62258449  0.04626486  1  0  0.160549  0  0.957194  0  0  0.17692  0  1.011515  0  0  0.180497  0  1.010653  0  0.097203  0  0.100703  0.174211  0  1.012358  0
H  H70  1  0.53801217  0.12258403  0.45373514  1  0  0.160553  0  0.957192  0  0  0.176924  0  1.01151  0  0  0.1805  0  1.010649  0  0.097169  0  0.100701  0.174216  0  1.012353  0
H  H71  1  0.96198783  0.37741643  0.95373514  1  0  0.160549  0  0.957177  0  0  0.176921  0  1.011499  0  0  0.180497  0  1.010638  0  0.097183  0  0.100719  0.174212  0  1.012343  0
H  H72  1  0.35532161  0.91725928  0.26529194  1  0  0.138376  0  0.97334  0  0  0.149878  0  1.046854  0  0  0.15374  0  1.043477  0  0.098455  0  0.082442  0.146811  0  1.049656  0
H  H73  1  0.14467848  0.58274025  0.76529194  1  0  0.138368  0  0.973325  0  0  0.149864  0  1.046845  0  0  0.153724  0  1.043471  0  0.098423  0  0.082437  0.146798  0  1.049647  0
H  H74  1  0.64467684  0.08274164  0.73470728  1  0  0.138383  0  0.973356  0  0  0.149875  0  1.046876  0  0  0.153735  0  1.043501  0  0.098445  0  0.082441  0.146808  0  1.049678  0
H  H75  1  0.85532091  0.41726067  0.23470806  1  0  0.13834  0  0.973378  0  0  0.149849  0  1.046884  0  0  0.153712  0  1.043505  0  0.098408  0  0.082441  0.146783  0  1.049685  0
H  H76  1  0.36610506  0.77733465  0.32535061  1  0  0.145542  0  0.954604  0  0  0.163812  0  1.013227  0  0  0.166035  0  1.013459  0  0.087113  0  0.096908  0.162091  0  1.013259  0
H  H77  1  0.13389474  0.72266396  0.82534904  1  0  0.145565  0  0.954547  0  0  0.16383  0  1.013188  0  0  0.166054  0  1.013417  0  0.087132  0  0.096899  0.162109  0  1.01322  0
H  H78  1  0.63389253  0.22266350  0.67464861  1  0  0.145557  0  0.954571  0  0  0.163833  0  1.013192  0  0  0.166058  0  1.013421  0  0.087128  0  0.096902  0.162113  0  1.013225  0
H  H79  1  0.86610559  0.27733696  0.17465174  1  0  0.145585  0  0.95453  0  0  0.163859  0  1.013163  0  0  0.166083  0  1.013392  0  0.087148  0  0.096912  0.162139  0  1.013195  0
H  H80  1  0.48852521  0.92250539  0.35448107  1  0  0.15073  0  0.946747  0  0  0.167857  0  1.004987  0  0  0.170379  0  1.005267  0  0.102196  0  0.10244  0.166539  0  1.003892  0
H  H81  1  0.01147487  0.57749414  0.85448028  1  0  0.150604  0  0.946726  0  0  0.167755  0  1.004953  0  0  0.170279  0  1.005239  0  0.102213  0  0.102404  0.166437  0  1.003858  0
H  H82  1  0.51147360  0.07749368  0.64551893  1  0  0.150714  0  0.946716  0  0  0.167822  0  1.004989  0  0  0.170346  0  1.005274  0  0.102188  0  0.102428  0.166503  0  1.003895  0
H  H83  1  0.98852480  0.42250770  0.14552050  1  0  0.150758  0  0.946648  0  0  0.16785  0  1.004942  0  0  0.170372  0  1.005232  0  0.102209  0  0.102434  0.166531  0  1.003849  0
C  C84  1  0.35028768  0.31867271  0.36004847  1  0  -0.026084  0  3.577588  0  0  -0.079972  0  3.829004  0  0  -0.077003  0  3.840884  0  0.263872  0  -0.076873  -0.081978  0  3.82136  0
C  C85  1  0.14971192  0.18132591  0.86005004  1  0  -0.026141  0  3.577505  0  0  -0.079998  0  3.828922  0  0  -0.077029  0  3.840798  0  0.263853  0  -0.076876  -0.081996  0  3.82127  0
C  C86  1  0.64971057  0.68132452  0.63995153  1  0  -0.026006  0  3.577463  0  0  -0.079928  0  3.828952  0  0  -0.076951  0  3.840822  0  0.263841  0  -0.076858  -0.081926  0  3.821302  0
C  C87  1  0.85028747  0.81867501  0.13994996  1  0  -0.026174  0  3.577504  0  0  -0.080065  0  3.828938  0  0  -0.077078  0  3.8408  0  0.263852  0  -0.076899  -0.082061  0  3.821285  0
C  C88  1  0.44096070  0.27760000  0.28246870  1  0  -0.034865  0  3.573667  0  0  -0.086226  0  3.812915  0  0  -0.083403  0  3.826562  0  0.178713  0  -0.084939  -0.088053  0  3.803927  0
C  C89  1  0.05904012  0.22239953  0.78246949  1  0  -0.034752  0  3.573409  0  0  -0.08618  0  3.812729  0  0  -0.083361  0  3.826387  0  0.178985  0  -0.084915  -0.088011  0  3.803743  0
C  C90  1  0.55904188  0.72239907  0.71753208  1  0  -0.034819  0  3.573686  0  0  -0.086242  0  3.812959  0  0  -0.083424  0  3.826606  0  0.17868  0  -0.084942  -0.088079  0  3.803985  0
C  C91  1  0.94095898  0.77760046  0.21753130  1  0  -0.034722  0  3.573412  0  0  -0.086147  0  3.81274  0  0  -0.083325  0  3.826379  0  0.179009  0  -0.084909  -0.087982  0  3.803761  0
C  C92  1  0.41675827  0.52287513  0.28481473  1  0  -0.028378  0  3.58231  0  0  -0.082598  0  3.834373  0  0  -0.079427  0  3.84678  0  0.248004  0  -0.078489  -0.084475  0  3.82625  0
C  C93  1  0.08324521  0.97712624  0.78481395  1  0  -0.028492  0  3.582357  0  0  -0.082603  0  3.834285  0  0  -0.079432  0  3.846688  0  0.248078  0  -0.078536  -0.084481  0  3.826172  0
C  C94  1  0.58324460  0.47712486  0.71518605  1  0  -0.028617  0  3.582511  0  0  -0.082698  0  3.834421  0  0  -0.07953  0  3.846828  0  0.248015  0  -0.078571  -0.084574  0  3.826302  0
C  C95  1  0.91675409  0.02287744  0.21518605  1  0  -0.02851  0  3.582301  0  0  -0.082678  0  3.834294  0  0  -0.079513  0  3.846707  0  0.247987  0  -0.078552  -0.08456  0  3.826191  0
C  C96  1  0.50739862  0.48255741  0.20595410  1  0  -0.040798  0  3.581362  0  0  -0.095309  0  3.83256  0  0  -0.092145  0  3.844213  0  0.19944  0  -0.082991  -0.097402  0  3.824657  0
C  C97  1  0.99259987  0.01744120  0.70595567  1  0  -0.040762  0  3.581384  0  0  -0.09532  0  3.832578  0  0  -0.092146  0  3.844217  0  0.199451  0  -0.082996  -0.097409  0  3.824663  0
C  C98  1  0.49260208  0.51744166  0.79404276  1  0  -0.040724  0  3.58138  0  0  -0.095306  0  3.832564  0  0  -0.092138  0  3.844208  0  0.19951  0  -0.083003  -0.097387  0  3.824632  0
C  C99  1  0.00739829  0.98255880  0.29404512  1  0  -0.040808  0  3.581389  0  0  -0.095306  0  3.832574  0  0  -0.09214  0  3.84422  0  0.199516  0  -0.082998  -0.097392  0  3.824647  0
C  C100  1  0.23028986  0.36808529  0.21403382  1  0  -0.027043  0  3.571477  0  0  -0.07644  0  3.810182  0  0  -0.073612  0  3.823543  0  0.243939  0  -0.077953  -0.07819  0  3.800754  0
C  C101  1  0.26971125  0.13191517  0.71403461  1  0  -0.027071  0  3.571494  0  0  -0.076461  0  3.810159  0  0  -0.073629  0  3.823518  0  0.244281  0  -0.077952  -0.078209  0  3.800729  0
C  C102  1  0.76971084  0.63191379  0.78596618  1  0  -0.027066  0  3.571456  0  0  -0.07638  0  3.810073  0  0  -0.073549  0  3.823436  0  0.244312  0  -0.077935  -0.078126  0  3.800641  0
C  C103  1  0.73028712  0.86808852  0.28596618  1  0  -0.027229  0  3.571701  0  0  -0.076613  0  3.810352  0  0  -0.073771  0  3.823705  0  0.244269  0  -0.077985  -0.078359  0  3.800922  0
C  C104  1  0.32079988  0.32682615  0.13591284  1  0  -0.041843  0  3.574271  0  0  -0.093232  0  3.816908  0  0  -0.090629  0  3.828867  0  0.233017  0  -0.083541  -0.094768  0  3.808719  0
C  C105  1  0.17919886  0.17316970  0.63591363  1  0  -0.041902  0  3.574185  0  0  -0.093303  0  3.816843  0  0  -0.090689  0  3.828798  0  0.232688  0  -0.083604  -0.094833  0  3.808662  0
C  C106  1  0.67919874  0.67316923  0.86408794  1  0  -0.041766  0  3.574177  0  0  -0.0932  0  3.816838  0  0  -0.090589  0  3.828797  0  0.232662  0  -0.083508  -0.094732  0  3.808664  0
C  C107  1  0.82080053  0.82683122  0.36408716  1  0  -0.041837  0  3.574131  0  0  -0.093212  0  3.816738  0  0  -0.09059  0  3.828689  0  0.232699  0  -0.083536  -0.094739  0  3.808558  0
C  C108  1  0.35505566  0.83408108  0.54456672  1  0  -0.429847  0  3.568633  0  0  -0.493445  0  3.811645  0  0  -0.500425  0  3.815057  0  -0.215506  0  -0.248832  -0.488452  0  3.80986  0
C  C109  1  0.14494254  0.66591845  0.04456593  1  0  -0.429768  0  3.568629  0  0  -0.493369  0  3.811607  0  0  -0.50035  0  3.815016  0  -0.215199  0  -0.248823  -0.488382  0  3.809827  0
C  C110  1  0.64494099  0.16591707  0.45543328  1  0  -0.429901  0  3.568572  0  0  -0.493512  0  3.811576  0  0  -0.500491  0  3.814988  0  -0.215682  0  -0.248885  -0.488523  0  3.809799  0
C  C111  1  0.85505779  0.33408247  0.95543407  1  0  -0.42974  0  3.568617  0  0  -0.493358  0  3.811609  0  0  -0.500337  0  3.815018  0  -0.215205  0  -0.248862  -0.488371  0  3.809833  0
C  C112  1  0.38522275  0.87700894  0.33595441  1  0  -0.408994  0  3.558023  0  0  -0.47688  0  3.805457  0  0  -0.483157  0  3.808012  0  -0.242886  0  -0.242155  -0.472077  0  3.803103  0
C  C113  1  0.11477893  0.62298967  0.83595206  1  0  -0.408904  0  3.557872  0  0  -0.476793  0  3.805283  0  0  -0.483077  0  3.807845  0  -0.242915  0  -0.242125  -0.471993  0  3.802928  0
C  C114  1  0.61477701  0.12299014  0.66404872  1  0  -0.408999  0  3.557919  0  0  -0.476874  0  3.805375  0  0  -0.483154  0  3.807934  0  -0.242918  0  -0.242153  -0.472071  0  3.803023  0
C  C115  1  0.88522168  0.37701217  0.16404872  1  0  -0.409017  0  3.557853  0  0  -0.476894  0  3.805301  0  0  -0.483177  0  3.807858  0  -0.242915  0  -0.242151  -0.472093  0  3.802949  0
S  S116  1  0.28485267  0.90214025  0.44176733  1  0  0.673905  0  4.238834  0  0  0.650695  0  4.787744  0  0  0.679684  0  4.760762  0  1.16245  0  0.197408  0.629798  0  4.805726  0
S  S117  1  0.21514704  0.59786113  0.94176733  1  0  0.673918  0  4.238797  0  0  0.650705  0  4.787727  0  0  0.679705  0  4.760734  0  1.162075  0  0.19743  0.629817  0  4.805695  0
S  S118  1  0.71514614  0.09785882  0.55823267  1  0  0.673924  0  4.238751  0  0  0.650716  0  4.787653  0  0  0.679692  0  4.76069  0  1.162659  0  0.197415  0.629813  0  4.805652  0
S  S119  1  0.78485300  0.40213887  0.05823267  1  0  0.673866  0  4.238601  0  0  0.650669  0  4.787518  0  0  0.679661  0  4.760536  0  1.162083  0  0.19741  0.62977  0  4.8055  0
N  N120  1  0.30167354  0.41694963  0.31255059  1  0  -0.197206  0  3.263406  0  0  -0.10332  0  3.519807  0  0  -0.119338  0  3.535983  0  -0.984025  0  -0.364281  -0.092724  0  3.508767  0
N  N121  1  0.19832728  0.08304991  0.81255059  1  0  -0.197189  0  3.2634  0  0  -0.103341  0  3.519766  0  0  -0.119361  0  3.535944  0  -0.984091  0  -0.364279  -0.092747  0  3.508726  0
N  N122  1  0.69832744  0.58305037  0.68744862  1  0  -0.197225  0  3.263421  0  0  -0.103381  0  3.519786  0  0  -0.119404  0  3.535961  0  -0.984088  0  -0.364278  -0.092787  0  3.50875  0
N  N123  1  0.80167154  0.91694917  0.18744862  1  0  -0.197121  0  3.263365  0  0  -0.103255  0  3.51976  0  0  -0.119278  0  3.535931  0  -0.984084  0  -0.364237  -0.092663  0  3.508722  0
N  N124  1  0.45412737  0.34818901  0.18217143  1  0  -0.18788  0  3.274005  0  0  -0.088408  0  3.531545  0  0  -0.103334  0  3.54568  0  -0.949339  0  -0.368703  -0.078661  0  3.521563  0
N  N125  1  0.04587185  0.15181145  0.68217378  1  0  -0.187813  0  3.273858  0  0  -0.088334  0  3.531447  0  0  -0.103267  0  3.545589  0  -0.949597  0  -0.368708  -0.07859  0  3.52147  0
N  N126  1  0.54587672  0.65181191  0.81782779  1  0  -0.187917  0  3.274033  0  0  -0.088423  0  3.531593  0  0  -0.103348  0  3.545727  0  -0.949277  0  -0.368708  -0.078669  0  3.521603  0
N  N127  1  0.95412688  0.84819039  0.31782622  1  0  -0.187856  0  3.273848  0  0  -0.088383  0  3.531398  0  0  -0.103308  0  3.545528  0  -0.949555  0  -0.36874  -0.078632  0  3.521414  0
Cl  Cl128  1  0.01021630  0.72177053  0.58357544  1  0  -0.448775  0  1.465494  0  0  -0.380333  0  1.856399  0  0  -0.392002  0  1.815154  0  -0.602515  0  -0.265933  -0.372525  0  1.88475  0
Cl  Cl129  1  0.48978407  0.77822992  0.08357622  1  0  -0.448778  0  1.465502  0  0  -0.38035  0  1.856436  0  0  -0.392008  0  1.81518  0  -0.602521  0  -0.265933  -0.372535  0  1.884778  0
Cl  Cl130  1  0.98978374  0.27822946  0.41642534  1  0  -0.448781  0  1.4655  0  0  -0.380328  0  1.856384  0  0  -0.391992  0  1.815141  0  -0.602509  0  -0.265928  -0.372525  0  1.884739  0
Cl  Cl131  1  0.51021655  0.22177192  0.91642221  1  0  -0.448798  0  1.465486  0  0  -0.38036  0  1.856399  0  0  -0.392023  0  1.81515  0  -0.602546  0  -0.265941  -0.372554  0  1.88475  0
Cl  Cl132  1  0.26508781  0.50580773  0.58360289  1  0  -0.464499  0  1.371499  0  0  -0.395061  0  1.722171  0  0  -0.410278  0  1.686895  0  -0.612793  0  -0.273398  -0.384622  0  1.746043  0
Cl  Cl133  1  0.23491162  0.99419272  0.08360211  1  0  -0.464521  0  1.371536  0  0  -0.395064  0  1.722198  0  0  -0.410278  0  1.686915  0  -0.612788  0  -0.273398  -0.384624  0  1.746067  0
Cl  Cl134  1  0.73491374  0.49419411  0.41639632  1  0  -0.464529  0  1.371519  0  0  -0.395089  0  1.722194  0  0  -0.410295  0  1.686902  0  -0.61263  0  -0.273397  -0.384648  0  1.746069  0
Cl  Cl135  1  0.76508720  0.00580635  0.91639632  1  0  -0.464519  0  1.371548  0  0  -0.395069  0  1.722209  0  0  -0.410274  0  1.686919  0  -0.612682  0  -0.27338  -0.384627  0  1.746082  0
Cl  Cl136  1  0.89368610  0.38774252  0.67474665  1  0  -0.4604  0  1.512429  0  0  -0.393077  0  1.910197  0  0  -0.404627  0  1.870012  0  -0.601718  0  -0.258472  -0.38527  0  1.937733  0
Cl  Cl137  1  0.60631456  0.11225702  0.17474665  1  0  -0.460413  0  1.512391  0  0  -0.393105  0  1.910175  0  0  -0.404644  0  1.869973  0  -0.601695  0  -0.258485  -0.385293  0  1.937706  0
Cl  Cl138  1  0.10631394  0.61225748  0.32525178  1  0  -0.460416  0  1.512403  0  0  -0.393087  0  1.910149  0  0  -0.404629  0  1.86996  0  -0.60172  0  -0.258479  -0.385274  0  1.937673  0
Cl  Cl139  1  0.39368643  0.88774298  0.82525178  1  0  -0.46042  0  1.512398  0  0  -0.393102  0  1.910163  0  0  -0.404639  0  1.86997  0  -0.60172  0  -0.258483  -0.385285  0  1.937686  0
O  O140  1  0.32082326  0.03874961  0.46179525  1  0  -0.6002  0  1.864596  0  0  -0.536683  0  2.103167  0  0  -0.559196  0  2.093533  0  -1.263116  0  -0.355121  -0.521006  0  2.109575  0
O  O141  1  0.17917662  0.46124993  0.96179525  1  0  -0.600235  0  1.864544  0  0  -0.536725  0  2.103125  0  0  -0.559241  0  2.093489  0  -1.263031  0  -0.355146  -0.521047  0  2.109527  0
O  O142  1  0.67917584  0.96125039  0.53820475  1  0  -0.600207  0  1.864577  0  0  -0.536663  0  2.103132  0  0  -0.559175  0  2.093501  0  -1.263141  0  -0.35511  -0.520994  0  2.109549  0
O  O143  1  0.82082457  0.53875376  0.03820475  1  0  -0.600237  0  1.864359  0  0  -0.53672  0  2.102933  0  0  -0.559237  0  2.093301  0  -1.263066  0  -0.355155  -0.521032  0  2.109328  0
