# generated using pymatgen
data_CuH5C4IN
_symmetry_space_group_name_H-M   'P 1'
_cell_length_a   4.14135704
_cell_length_b   15.83947229
_cell_length_c   16.80700480
_cell_angle_alpha   89.99965289
_cell_angle_beta   89.99967476
_cell_angle_gamma   89.99982053
_symmetry_Int_Tables_number   1
_chemical_formula_structural   CuH5C4IN
_chemical_formula_sum   'Cu8 H40 C32 I8 N8'
_cell_volume   1102.48758360
_cell_formula_units_Z   8
loop_
 _symmetry_equiv_pos_site_id
 _symmetry_equiv_pos_as_xyz
  1  'x, y, z'
loop_
 _atom_site_type_symbol
 _atom_site_label
 _atom_site_symmetry_multiplicity
 _atom_site_fract_x
 _atom_site_fract_y
 _atom_site_fract_z
 _atom_site_occupancy
 _atom_site_hle17_bader_spin_density
 _atom_site_hle17_ddec_charge
 _atom_site_hle17_ddec_spin_density
 _atom_site_hle17_ddec_sum_bond_order
 _atom_site_hle17_magmom
 _atom_site_hse06_10hf_bader_spin_density
 _atom_site_hse06_10hf_ddec_charge
 _atom_site_hse06_10hf_ddec_spin_density
 _atom_site_hse06_10hf_ddec_sum_bond_order
 _atom_site_hse06_10hf_magmom
 _atom_site_hse06_bader_spin_density
 _atom_site_hse06_ddec_charge
 _atom_site_hse06_ddec_spin_density
 _atom_site_hse06_ddec_sum_bond_order
 _atom_site_hse06_magmom
 _atom_site_pbe_bader_spin_density
 _atom_site_pbe_cm5_charge
 _atom_site_pbe_ddec_charge
 _atom_site_pbe_ddec_spin_density
 _atom_site_pbe_ddec_sum_bond_order
 _atom_site_pbe_magmom
Cu  Cu0  1  0.95567265  0.70464474  0.45297033  1  0  0.24778  0  2.13617  0  0  0.165479  0  2.610637  0  0  0.174429  0  2.558843  0  0  0.25674  0.161488  0  2.64514  0
Cu  Cu1  1  0.54432070  0.79535403  0.95297141  1  0  0.24778  0  2.136169  0  0  0.165477  0  2.610642  0  0  0.1744  0  2.558844  0  0  0.256747  0.161496  0  2.645136  0
Cu  Cu2  1  0.45568761  0.79535410  0.54703002  1  0  0.247776  0  2.13623  0  0  0.165448  0  2.610727  0  0  0.174362  0  2.558921  0  0  0.25674  0.16146  0  2.645216  0
Cu  Cu3  1  0.04431407  0.70464641  0.04702775  1  0  0.247732  0  2.136236  0  0  0.165422  0  2.610715  0  0  0.174388  0  2.55892  0  0  0.256728  0.161429  0  2.645217  0
Cu  Cu4  1  0.04432302  0.29535529  0.54702997  1  0  0.24776  0  2.136216  0  0  0.165426  0  2.610684  0  0  0.174387  0  2.558901  0  0  0.256732  0.161447  0  2.645192  0
Cu  Cu5  1  0.45567739  0.20464600  0.04703186  1  0  0.247735  0  2.136262  0  0  0.165399  0  2.610734  0  0  0.174364  0  2.558953  0  0  0.256706  0.161421  0  2.64524  0
Cu  Cu6  1  0.54431531  0.20464656  0.45297265  1  0  0.247816  0  2.136181  0  0  0.165535  0  2.61062  0  0  0.174482  0  2.558836  0  0  0.256771  0.161568  0  2.645121  0
Cu  Cu7  1  0.95567436  0.29535361  0.95297195  1  0  0.247788  0  2.136163  0  0  0.165471  0  2.610608  0  0  0.174417  0  2.558828  0  0  0.256761  0.161506  0  2.645107  0
H  H8  1  0.97927674  0.82410556  0.32464788  1  0  0.076201  0  1.007676  0  0  0.083175  0  1.078019  0  0  0.086397  0  1.076008  0  0  0.098421  0.080762  0  1.079681  0
H  H9  1  0.52075086  0.67589213  0.82464968  1  0  0.076188  0  1.007629  0  0  0.083168  0  1.077964  0  0  0.086395  0  1.075945  0  0  0.09843  0.080761  0  1.079617  0
H  H10  1  0.47929027  0.67589389  0.67535184  1  0  0.076177  0  1.007747  0  0  0.083151  0  1.07808  0  0  0.086371  0  1.076076  0  0  0.098404  0.080743  0  1.079738  0
H  H11  1  0.02073029  0.82410580  0.17534951  1  0  0.076144  0  1.007724  0  0  0.08312  0  1.078061  0  0  0.086338  0  1.076061  0  0  0.09839  0.080708  0  1.07972  0
H  H12  1  0.02070686  0.17589510  0.67535123  1  0  0.076147  0  1.007764  0  0  0.08312  0  1.078102  0  0  0.086339  0  1.0761  0  0  0.098386  0.080713  0  1.079756  0
H  H13  1  0.47928345  0.32410474  0.17535061  1  0  0.076138  0  1.007787  0  0  0.083111  0  1.07812  0  0  0.086332  0  1.076118  0  0  0.098393  0.080708  0  1.079767  0
H  H14  1  0.52074404  0.32410803  0.32464964  1  0  0.076179  0  1.007631  0  0  0.083155  0  1.077971  0  0  0.086383  0  1.075954  0  0  0.098436  0.080749  0  1.079622  0
H  H15  1  0.97924607  0.17589360  0.82464900  1  0  0.076156  0  1.007711  0  0  0.083141  0  1.07804  0  0  0.086371  0  1.076001  0  0  0.098425  0.080734  0  1.079686  0
H  H16  1  0.70325024  0.53247022  0.35752568  1  0  0.090711  0  0.943344  0  0  0.10814  0  1.006356  0  0  0.109179  0  1.007128  0  0  0.08944  0.107204  0  1.005903  0
H  H17  1  0.79674765  0.96752979  0.85752304  1  0  0.090721  0  0.943395  0  0  0.108158  0  1.00638  0  0  0.109198  0  1.007151  0  0  0.089444  0.107213  0  1.005933  0
H  H18  1  0.20325377  0.96752820  0.64247444  1  0  0.090715  0  0.943309  0  0  0.108136  0  1.006337  0  0  0.109172  0  1.007113  0  0  0.08944  0.107191  0  1.005887  0
H  H19  1  0.29675062  0.53247044  0.14247517  1  0  0.090723  0  0.943379  0  0  0.108153  0  1.006374  0  0  0.109192  0  1.007147  0  0  0.089448  0.107211  0  1.005924  0
H  H20  1  0.29676475  0.46752981  0.64247640  1  0  0.090624  0  0.943434  0  0  0.108081  0  1.006413  0  0  0.10912  0  1.007183  0  0  0.089407  0.107132  0  1.005971  0
H  H21  1  0.20324319  0.03247087  0.14247726  1  0  0.090687  0  0.94341  0  0  0.108143  0  1.00638  0  0  0.109181  0  1.007155  0  0  0.089441  0.107193  0  1.005939  0
H  H22  1  0.79673949  0.03247057  0.35752645  1  0  0.090783  0  0.943314  0  0  0.108222  0  1.006312  0  0  0.109258  0  1.007088  0  0  0.089479  0.107274  0  1.005867  0
H  H23  1  0.70324506  0.46752958  0.85752334  1  0  0.090699  0  0.943399  0  0  0.108153  0  1.006361  0  0  0.109192  0  1.007135  0  0  0.089439  0.107209  0  1.005915  0
H  H24  1  0.09319368  0.54605666  0.39401920  1  0  0.089637  0  0.971065  0  0  0.101723  0  1.043528  0  0  0.10501  0  1.041215  0  0  0.079523  0.098981  0  1.045625  0
H  H25  1  0.40680510  0.95394099  0.89401826  1  0  0.089655  0  0.97105  0  0  0.101746  0  1.043501  0  0  0.105031  0  1.041189  0  0  0.079516  0.099001  0  1.0456  0
H  H26  1  0.59319890  0.95394121  0.60597989  1  0  0.089608  0  0.971089  0  0  0.101701  0  1.043546  0  0  0.104986  0  1.041234  0  0  0.079493  0.098956  0  1.045635  0
H  H27  1  0.90680701  0.54605978  0.10598038  1  0  0.08965  0  0.971042  0  0  0.10173  0  1.043505  0  0  0.105021  0  1.041188  0  0  0.079507  0.098988  0  1.045599  0
H  H28  1  0.90682373  0.45394210  0.60597990  1  0  0.089648  0  0.971131  0  0  0.101701  0  1.043624  0  0  0.104984  0  1.041315  0  0  0.079488  0.098961  0  1.045715  0
H  H29  1  0.59319299  0.04606029  0.10598144  1  0  0.089677  0  0.970962  0  0  0.101766  0  1.043427  0  0  0.105057  0  1.04111  0  0  0.079526  0.09902  0  1.045529  0
H  H30  1  0.40679677  0.04605755  0.39402160  1  0  0.089652  0  0.971081  0  0  0.101757  0  1.04353  0  0  0.105043  0  1.041215  0  0  0.079496  0.099015  0  1.045617  0
H  H31  1  0.09318625  0.45394151  0.89401932  1  0  0.089648  0  0.971113  0  0  0.101704  0  1.043598  0  0  0.105  0  1.041277  0  0  0.079498  0.098961  0  1.045696  0
H  H32  1  0.98869162  0.40424876  0.32530178  1  0  0.064882  0  0.961903  0  0  0.080747  0  1.030164  0  0  0.081569  0  1.031089  0  0  0.079742  0.079924  0  1.029881  0
H  H33  1  0.51130090  0.09574970  0.82529989  1  0  0.064922  0  0.961889  0  0  0.080785  0  1.030139  0  0  0.081603  0  1.031068  0  0  0.079768  0.079959  0  1.029859  0
H  H34  1  0.48868921  0.09575019  0.67469663  1  0  0.064866  0  0.961897  0  0  0.08074  0  1.030162  0  0  0.081565  0  1.031084  0  0  0.079738  0.079915  0  1.029877  0
H  H35  1  0.01130594  0.40424965  0.17469861  1  0  0.064904  0  0.961911  0  0  0.080771  0  1.03016  0  0  0.081592  0  1.031087  0  0  0.07975  0.079947  0  1.029875  0
H  H36  1  0.01131130  0.59575127  0.67469733  1  0  0.064872  0  0.961913  0  0  0.08075  0  1.030157  0  0  0.081573  0  1.031081  0  0  0.079722  0.079923  0  1.02988  0
H  H37  1  0.48868995  0.90424906  0.17470100  1  0  0.064929  0  0.961901  0  0  0.080805  0  1.030133  0  0  0.081628  0  1.031054  0  0  0.079766  0.079978  0  1.029855  0
H  H38  1  0.51129680  0.90424920  0.32530486  1  0  0.064894  0  0.96189  0  0  0.080772  0  1.03015  0  0  0.081595  0  1.031072  0  0  0.079745  0.079946  0  1.029871  0
H  H39  1  0.98869456  0.59575038  0.82530109  1  0  0.064924  0  0.961881  0  0  0.080801  0  1.030126  0  0  0.08162  0  1.031056  0  0  0.079765  0.079976  0  1.029845  0
H  H40  1  0.33005008  0.45904831  0.29127343  1  0  0.056383  0  0.970159  0  0  0.078962  0  1.028392  0  0  0.07898  0  1.029857  0  0  0.082979  0.078876  0  1.027426  0
H  H41  1  0.16994731  0.04094888  0.79127281  1  0  0.056343  0  0.970208  0  0  0.078937  0  1.028419  0  0  0.078953  0  1.029884  0  0  0.08297  0.078845  0  1.027462  0
H  H42  1  0.83004828  0.04095140  0.70872402  1  0  0.056358  0  0.970288  0  0  0.078952  0  1.028504  0  0  0.078972  0  1.029969  0  0  0.082973  0.078872  0  1.027525  0
H  H43  1  0.66994924  0.45904970  0.20872605  1  0  0.056376  0  0.970196  0  0  0.078958  0  1.028418  0  0  0.078978  0  1.02988  0  0  0.082977  0.078872  0  1.027452  0
H  H44  1  0.66995767  0.54095045  0.70872389  1  0  0.056391  0  0.970227  0  0  0.078976  0  1.028449  0  0  0.078994  0  1.029916  0  0  0.082972  0.0789  0  1.027469  0
H  H45  1  0.83004354  0.95905051  0.20872748  1  0  0.056378  0  0.970198  0  0  0.078962  0  1.028413  0  0  0.078979  0  1.029879  0  0  0.082986  0.078866  0  1.027463  0
H  H46  1  0.16994256  0.95905052  0.29127628  1  0  0.056388  0  0.970197  0  0  0.078985  0  1.028401  0  0  0.079004  0  1.029865  0  0  0.08297  0.078897  0  1.027436  0
H  H47  1  0.33005126  0.54095032  0.79127424  1  0  0.056365  0  0.970195  0  0  0.078952  0  1.028417  0  0  0.07897  0  1.029881  0  0  0.082977  0.078866  0  1.027454  0
C  C48  1  0.98729417  0.76542820  0.29087462  1  0  0.063948  0  3.703611  0  0  0.032977  0  3.957886  0  0  0.0365  0  3.970977  0  0  0.028307  0.030033  0  3.950297  0
C  C49  1  0.51272936  0.73457349  0.79087610  1  0  0.063988  0  3.703788  0  0  0.033043  0  3.95802  0  0  0.036569  0  3.971119  0  0  0.028387  0.030087  0  3.950443  0
C  C50  1  0.48731107  0.73456619  0.70912628  1  0  0.064078  0  3.703318  0  0  0.033108  0  3.957575  0  0  0.036634  0  3.970664  0  0  0.028382  0.030156  0  3.949993  0
C  C51  1  0.01271357  0.76543013  0.20912370  1  0  0.06409  0  3.703432  0  0  0.033134  0  3.957698  0  0  0.036668  0  3.970796  0  0  0.028417  0.030187  0  3.95011  0
C  C52  1  0.01269185  0.23456867  0.70912508  1  0  0.064025  0  3.703441  0  0  0.033073  0  3.957693  0  0  0.036601  0  3.970794  0  0  0.028368  0.03012  0  3.950104  0
C  C53  1  0.48729771  0.26543411  0.20912717  1  0  0.06407  0  3.703192  0  0  0.033114  0  3.957462  0  0  0.036641  0  3.970552  0  0  0.028394  0.030158  0  3.949884  0
C  C54  1  0.51271841  0.26542500  0.29087699  1  0  0.064098  0  3.703709  0  0  0.033182  0  3.957936  0  0  0.036702  0  3.971031  0  0  0.028445  0.030231  0  3.950356  0
C  C55  1  0.98727004  0.23457242  0.79087660  1  0  0.063976  0  3.703696  0  0  0.033006  0  3.957941  0  0  0.036538  0  3.971041  0  0  0.028384  0.030058  0  3.950351  0
C  C56  1  0.98410766  0.61976426  0.29187463  1  0  0.184193  0  3.60176  0  0  0.184422  0  3.843117  0  0  0.189369  0  3.86064  0  0  0.120744  0.180534  0  3.83211  0
C  C57  1  0.51590618  0.88023680  0.79187348  1  0  0.184273  0  3.601478  0  0  0.184437  0  3.842929  0  0  0.189391  0  3.86046  0  0  0.120727  0.180557  0  3.831911  0
C  C58  1  0.48411319  0.88023203  0.70812450  1  0  0.184077  0  3.601934  0  0  0.184433  0  3.843192  0  0  0.189374  0  3.860722  0  0  0.120645  0.180544  0  3.832178  0
C  C59  1  0.01589939  0.61976555  0.20812453  1  0  0.184133  0  3.60184  0  0  0.184442  0  3.84314  0  0  0.189397  0  3.860674  0  0  0.120637  0.180556  0  3.832128  0
C  C60  1  0.01590009  0.38023324  0.70812507  1  0  0.184115  0  3.601833  0  0  0.184398  0  3.843176  0  0  0.189346  0  3.860711  0  0  0.120687  0.180511  0  3.83216  0
C  C61  1  0.48409674  0.11976891  0.20812562  1  0  0.184115  0  3.601967  0  0  0.184471  0  3.843259  0  0  0.189416  0  3.860793  0  0  0.120688  0.180586  0  3.832251  0
C  C62  1  0.51589456  0.11976294  0.29187640  1  0  0.184141  0  3.601404  0  0  0.184325  0  3.842885  0  0  0.189278  0  3.860405  0  0  0.120742  0.18044  0  3.831873  0
C  C63  1  0.98409870  0.38023637  0.79187517  1  0  0.184136  0  3.601682  0  0  0.184385  0  3.843026  0  0  0.189336  0  3.86056  0  0  0.120681  0.180505  0  3.832009  0
C  C64  1  0.95676152  0.53916295  0.33815022  1  0  -0.1881  0  3.718741  0  0  -0.229105  0  3.965893  0  0  -0.231855  0  3.976741  0  0  -0.171008  -0.226833  0  3.958687  0
C  C65  1  0.54323681  0.96083655  0.83814917  1  0  -0.188163  0  3.71883  0  0  -0.229147  0  3.965988  0  0  -0.231898  0  3.97684  0  0  -0.171019  -0.226874  0  3.958789  0
C  C66  1  0.45676711  0.96083589  0.66184894  1  0  -0.18809  0  3.71877  0  0  -0.229107  0  3.965875  0  0  -0.231852  0  3.976727  0  0  -0.170983  -0.226825  0  3.958659  0
C  C67  1  0.04323926  0.53916326  0.16184999  1  0  -0.188145  0  3.718759  0  0  -0.229156  0  3.965881  0  0  -0.231909  0  3.976729  0  0  -0.171013  -0.226876  0  3.958669  0
C  C68  1  0.04325106  0.46083771  0.66185067  1  0  -0.188023  0  3.718922  0  0  -0.229008  0  3.966005  0  0  -0.231754  0  3.976863  0  0  -0.170971  -0.226728  0  3.958797  0
C  C69  1  0.45675404  0.03916348  0.16185291  1  0  -0.188088  0  3.71866  0  0  -0.229145  0  3.96582  0  0  -0.231899  0  3.976672  0  0  -0.171026  -0.226858  0  3.958609  0
C  C70  1  0.54322856  0.03916288  0.33815255  1  0  -0.188117  0  3.718699  0  0  -0.229139  0  3.965912  0  0  -0.231885  0  3.976755  0  0  -0.171021  -0.226856  0  3.958694  0
C  C71  1  0.95675884  0.46083677  0.83815031  1  0  -0.188114  0  3.718874  0  0  -0.22911  0  3.966036  0  0  -0.231868  0  3.976885  0  0  -0.170994  -0.226834  0  3.95883  0
C  C72  1  0.06467327  0.46086792  0.29246300  1  0  -0.104652  0  3.699348  0  0  -0.145592  0  3.957255  0  0  -0.146834  0  3.971801  0  0  -0.174236  -0.144477  0  3.947028  0
C  C73  1  0.43532409  0.03913116  0.79246142  1  0  -0.104645  0  3.699376  0  0  -0.145578  0  3.957298  0  0  -0.146819  0  3.971854  0  0  -0.174225  -0.144463  0  3.947076  0
C  C74  1  0.56467153  0.03913201  0.70753542  1  0  -0.104571  0  3.699443  0  0  -0.145574  0  3.957426  0  0  -0.146804  0  3.971945  0  0  -0.174214  -0.14446  0  3.947181  0
C  C75  1  0.93532361  0.46086784  0.20753766  1  0  -0.10467  0  3.699412  0  0  -0.145611  0  3.957308  0  0  -0.146854  0  3.971854  0  0  -0.174225  -0.144498  0  3.947079  0
C  C76  1  0.93533448  0.53913273  0.70753610  1  0  -0.104687  0  3.699555  0  0  -0.145674  0  3.957518  0  0  -0.146906  0  3.972042  0  0  -0.174211  -0.144561  0  3.947287  0
C  C77  1  0.56466676  0.96086824  0.20753828  1  0  -0.104691  0  3.699447  0  0  -0.145625  0  3.957366  0  0  -0.146867  0  3.971916  0  0  -0.174229  -0.144499  0  3.947139  0
C  C78  1  0.43531691  0.96086865  0.29246547  1  0  -0.104733  0  3.699354  0  0  -0.145711  0  3.957304  0  0  -0.14695  0  3.971841  0  0  -0.174256  -0.14459  0  3.947071  0
C  C79  1  0.06467689  0.53913156  0.79246263  1  0  -0.10464  0  3.699359  0  0  -0.145601  0  3.957293  0  0  -0.14684  0  3.971839  0  0  -0.174225  -0.144487  0  3.947072  0
I  I80  1  0.95860275  0.87110726  0.48163231  1  0  -0.32796  0  1.837581  0  0  -0.271745  0  2.315237  0  0  -0.288272  0  2.271266  0  0  -0.147259  -0.260103  0  2.346176  0
I  I81  1  0.54140204  0.62889132  0.98163375  1  0  -0.327934  0  1.837544  0  0  -0.271723  0  2.315198  0  0  -0.288269  0  2.271239  0  0  -0.147259  -0.26008  0  2.34614  0
I  I82  1  0.45858894  0.62889158  0.51836685  1  0  -0.327968  0  1.837576  0  0  -0.271768  0  2.315236  0  0  -0.288309  0  2.271279  0  0  -0.14728  -0.260113  0  2.346148  0
I  I83  1  0.04140372  0.87110849  0.01836720  1  0  -0.32798  0  1.837583  0  0  -0.271788  0  2.315249  0  0  -0.288316  0  2.271276  0  0  -0.147282  -0.260139  0  2.346169  0
I  I84  1  0.04140017  0.12889214  0.51836740  1  0  -0.327976  0  1.837559  0  0  -0.271755  0  2.315192  0  0  -0.288305  0  2.271245  0  0  -0.147267  -0.260124  0  2.346129  0
I  I85  1  0.45859122  0.37110808  0.01836654  1  0  -0.327954  0  1.837568  0  0  -0.271736  0  2.315203  0  0  -0.288281  0  2.271255  0  0  -0.147267  -0.260113  0  2.346153  0
I  I86  1  0.54140674  0.37110845  0.48163344  1  0  -0.327959  0  1.837597  0  0  -0.271736  0  2.315235  0  0  -0.288285  0  2.271284  0  0  -0.147266  -0.260108  0  2.346185  0
I  I87  1  0.95859920  0.12889154  0.98163607  1  0  -0.32797  0  1.837604  0  0  -0.271754  0  2.31524  0  0  -0.288308  0  2.271292  0  0  -0.147267  -0.26011  0  2.346155  0
N  N88  1  0.97234492  0.69331645  0.33336605  1  0  -0.253021  0  3.307084  0  0  -0.189191  0  3.592507  0  0  -0.194457  0  3.597188  0  0  -0.343366  -0.186401  0  3.589613  0
N  N89  1  0.52767283  0.80667866  0.83336710  1  0  -0.253092  0  3.306971  0  0  -0.189284  0  3.592473  0  0  -0.194565  0  3.597165  0  0  -0.343504  -0.186494  0  3.589579  0
N  N90  1  0.47235466  0.80668679  0.66663309  1  0  -0.253032  0  3.306861  0  0  -0.18922  0  3.592272  0  0  -0.194481  0  3.596941  0  0  -0.343326  -0.186425  0  3.589371  0
N  N91  1  0.02766126  0.69331548  0.16663268  1  0  -0.252994  0  3.307018  0  0  -0.189198  0  3.592435  0  0  -0.194503  0  3.597159  0  0  -0.34335  -0.186405  0  3.589538  0
N  N92  1  0.02765559  0.30668610  0.66663424  1  0  -0.252901  0  3.306993  0  0  -0.1891  0  3.592418  0  0  -0.194392  0  3.597134  0  0  -0.343314  -0.186312  0  3.589526  0
N  N93  1  0.47233733  0.19331253  0.16663558  1  0  -0.252942  0  3.306933  0  0  -0.189148  0  3.59236  0  0  -0.194432  0  3.597064  0  0  -0.343335  -0.186362  0  3.589479  0
N  N94  1  0.52766033  0.19332207  0.33336840  1  0  -0.253174  0  3.307137  0  0  -0.189424  0  3.592704  0  0  -0.194696  0  3.597387  0  0  -0.343588  -0.186639  0  3.58982  0
N  N95  1  0.97232959  0.30668139  0.83336761  1  0  -0.252981  0  3.306999  0  0  -0.189162  0  3.592435  0  0  -0.194448  0  3.597138  0  0  -0.343444  -0.186383  0  3.58955  0
