# generated using pymatgen
data_AgH39(C10O)2
_symmetry_space_group_name_H-M   'P 1'
_cell_length_a   4.00010934
_cell_length_b   4.53290209
_cell_length_c   53.26897199
_cell_angle_alpha   89.49761945
_cell_angle_beta   86.24289665
_cell_angle_gamma   79.07463083
_symmetry_Int_Tables_number   1
_chemical_formula_structural   AgH39(C10O)2
_chemical_formula_sum   'Ag2 H78 C40 O4'
_cell_volume   946.32707842
_cell_formula_units_Z   2
loop_
 _symmetry_equiv_pos_site_id
 _symmetry_equiv_pos_as_xyz
  1  'x, y, z'
loop_
 _atom_site_type_symbol
 _atom_site_label
 _atom_site_symmetry_multiplicity
 _atom_site_fract_x
 _atom_site_fract_y
 _atom_site_fract_z
 _atom_site_occupancy
 _atom_site_pbe_bader_spin_density
 _atom_site_pbe_cm5_charge
 _atom_site_pbe_ddec_charge
 _atom_site_pbe_ddec_spin_density
 _atom_site_pbe_ddec_sum_bond_order
 _atom_site_pbe_magmom
Ag  Ag0  1  0.74511468  0.17924642  0.01399080  1  0  0.397229  0.416499  0  2.016722  0
Ag  Ag1  1  0.25487548  0.82080349  0.98601080  1  0  0.397227  0.416529  0  2.016818  0
H  H2  1  0.08223834  0.38733214  0.07289771  1  0  0.103886  0.125391  0  0.997537  0
H  H3  1  0.91770424  0.61269858  0.92710183  1  0  0.103893  0.12536  0  0.997415  0
H  H4  1  0.51284368  0.36641039  0.06311628  1  0  0.094151  0.114925  0  1.023142  0
H  H5  1  0.48709693  0.63358645  0.93688405  1  0  0.094137  0.114931  0  1.023158  0
H  H6  1  0.50876678  0.85615278  0.08575078  1  0  0.089211  0.087404  0  1.009718  0
H  H7  1  0.49120418  0.14384248  0.91424999  1  0  0.08916  0.087355  0  1.009777  0
H  H8  1  0.08037801  0.86594575  0.09657014  1  0  0.085426  0.072574  0  1.021828  0
H  H9  1  0.91959458  0.13405189  0.90343232  1  0  0.085419  0.072586  0  1.021705  0
H  H10  1  0.25435699  0.37063759  0.11839424  1  0  0.086755  0.076987  0  1.011022  0
H  H11  1  0.74562929  0.62934668  0.88160574  1  0  0.086757  0.076964  0  1.010959  0
H  H12  1  0.67957191  0.35637435  0.10717578  1  0  0.084934  0.072058  0  1.012942  0
H  H13  1  0.32039988  0.64361861  0.89282349  1  0  0.084902  0.071976  0  1.012923  0
H  H14  1  0.26717893  0.84548594  0.14234354  1  0  0.082718  0.067652  0  1.021608  0
H  H15  1  0.73280205  0.15448919  0.85765646  1  0  0.082687  0.067601  0  1.021749  0
H  H16  1  0.69385842  0.82838350  0.13119717  1  0  0.085975  0.076986  0  1.01315  0
H  H17  1  0.30611482  0.17160275  0.86880304  1  0  0.085952  0.077026  0  1.013101  0
H  H18  1  0.85654185  0.32486588  0.15210395  1  0  0.082409  0.067095  0  1.021555  0
H  H19  1  0.14345042  0.67513437  0.84789693  1  0  0.082403  0.06706  0  1.021563  0
H  H20  1  0.42987667  0.34395864  0.16326591  1  0  0.084625  0.074926  0  1.012185  0
H  H21  1  0.57011568  0.65602124  0.83673404  1  0  0.084623  0.07491  0  1.012246  0
H  H22  1  0.45044713  0.81534666  0.18744507  1  0  0.082508  0.067446  0  1.02097  0
H  H23  1  0.54952405  0.18463732  0.81255571  1  0  0.082517  0.067416  0  1.021057  0
H  H24  1  0.87901333  0.79184850  0.17656091  1  0  0.085311  0.07661  0  1.012358  0
H  H25  1  0.12095593  0.20815352  0.82344024  1  0  0.085342  0.076758  0  1.012147  0
H  H26  1  0.03137890  0.28886655  0.19759994  1  0  0.082524  0.067338  0  1.020775  0
H  H27  1  0.96858676  0.71111046  0.80239918  1  0  0.08252  0.067349  0  1.020713  0
H  H28  1  0.60253848  0.31167097  0.20836938  1  0  0.084731  0.075526  0  1.011105  0
H  H29  1  0.39744631  0.68833823  0.79163321  1  0  0.084711  0.075509  0  1.011106  0
H  H30  1  0.62443918  0.78334761  0.23254707  1  0  0.082381  0.066802  0  1.020714  0
H  H31  1  0.37558651  0.21664886  0.76745406  1  0  0.082436  0.066901  0  1.020849  0
H  H32  1  0.05515976  0.75501614  0.22207783  1  0  0.084803  0.076124  0  1.011323  0
H  H33  1  0.94485676  0.24497995  0.77791920  1  0  0.084791  0.076109  0  1.011241  0
H  H34  1  0.19763290  0.25322162  0.24345016  1  0  0.082468  0.066405  0  1.020607  0
H  H35  1  0.80241696  0.74677981  0.75654917  1  0  0.082488  0.0664  0  1.020659  0
H  H36  1  0.76654318  0.28049585  0.25378821  1  0  0.085537  0.07645  0  1.010872  0
H  H37  1  0.23350126  0.71949646  0.74621171  1  0  0.08554  0.076578  0  1.010777  0
H  H38  1  0.78952030  0.75176713  0.27796955  1  0  0.082252  0.067222  0  1.019887  0
H  H39  1  0.21052681  0.24823643  0.72202829  1  0  0.082276  0.067199  0  1.019942  0
H  H40  1  0.22193792  0.71991690  0.26785892  1  0  0.086266  0.077478  0  1.010427  0
H  H41  1  0.77810096  0.28007756  0.73214122  1  0  0.086289  0.077446  0  1.010273  0
H  H42  1  0.35601169  0.21803590  0.28932355  1  0  0.082609  0.067021  0  1.019954  0
H  H43  1  0.64403124  0.78196313  0.71067581  1  0  0.082633  0.06704  0  1.020118  0
H  H44  1  0.92350798  0.24928311  0.29937343  1  0  0.084718  0.076121  0  1.010918  0
H  H45  1  0.07651717  0.75071774  0.70062488  1  0  0.084758  0.076127  0  1.010979  0
H  H46  1  0.94813441  0.71840624  0.32368902  1  0  0.082021  0.066707  0  1.019749  0
H  H47  1  0.05188500  0.28159679  0.67631043  1  0  0.081979  0.066642  0  1.019766  0
H  H48  1  0.38111318  0.68564787  0.31369673  1  0  0.085646  0.076856  0  1.009898  0
H  H49  1  0.61888985  0.31436153  0.68630165  1  0  0.085693  0.076912  0  1.009837  0
H  H50  1  0.51276306  0.18339159  0.33512305  1  0  0.082635  0.066628  0  1.019974  0
H  H51  1  0.48727988  0.81662990  0.66487386  1  0  0.082576  0.066527  0  1.019959  0
H  H52  1  0.08008680  0.21619827  0.34517508  1  0  0.084585  0.075719  0  1.010753  0
H  H53  1  0.91997152  0.78378975  0.65482310  1  0  0.084643  0.075709  0  1.010822  0
H  H54  1  0.10546202  0.68210536  0.36966255  1  0  0.082217  0.06774  0  1.018926  0
H  H55  1  0.89456482  0.31788874  0.63033538  1  0  0.082226  0.067696  0  1.019077  0
H  H56  1  0.53679474  0.65401939  0.35934548  1  0  0.085444  0.076496  0  1.010425  0
H  H57  1  0.46323969  0.34598395  0.64065354  1  0  0.085469  0.076612  0  1.010217  0
H  H58  1  0.67921135  0.15244864  0.38055189  1  0  0.082238  0.066811  0  1.021444  0
H  H59  1  0.32082539  0.84755480  0.61944806  1  0  0.082286  0.06692  0  1.021369  0
H  H60  1  0.24806849  0.17729990  0.39075126  1  0  0.085168  0.076268  0  1.012323  0
H  H61  1  0.75196092  0.82269423  0.60924629  1  0  0.085139  0.076201  0  1.012253  0
H  H62  1  0.26321056  0.64104975  0.41561039  1  0  0.083025  0.067049  0  1.020744  0
H  H63  1  0.73678829  0.35893477  0.58438897  1  0  0.083002  0.067069  0  1.020643  0
H  H64  1  0.69138124  0.62601437  0.40495968  1  0  0.084418  0.074264  0  1.011043  0
H  H65  1  0.30861891  0.37398382  0.59504191  1  0  0.084412  0.074262  0  1.011009  0
H  H66  1  0.85654968  0.12539088  0.42570347  1  0  0.082129  0.067173  0  1.019821  0
H  H67  1  0.14344907  0.87460277  0.57429813  1  0  0.082119  0.067131  0  1.019938  0
H  H68  1  0.42870341  0.13282993  0.43599300  1  0  0.084085  0.07297  0  1.013336  0
H  H69  1  0.57128804  0.86716352  0.56400769  1  0  0.0841  0.073002  0  1.013182  0
H  H70  1  0.42243261  0.59537733  0.46146539  1  0  0.083308  0.067055  0  1.012621  0
H  H71  1  0.57754084  0.40461799  0.53853538  1  0  0.08334  0.067095  0  1.012677  0
H  H72  1  0.84582200  0.59974335  0.45064007  1  0  0.085326  0.072253  0  1.010882  0
H  H73  1  0.15414719  0.40025868  0.54936146  1  0  0.085299  0.072198  0  1.011028  0
H  H74  1  0.04067992  0.09728548  0.47120771  1  0  0.08148  0.10401  0  1.041534  0
H  H75  1  0.95929751  0.90271442  0.52879266  1  0  0.081536  0.104112  0  1.041288  0
H  H76  1  0.61435518  0.09037802  0.48198896  1  0  0.082921  0.107175  0  1.038861  0
H  H77  1  0.38562001  0.90961053  0.51801124  1  0  0.082793  0.107  0  1.038971  0
H  H78  1  0.82509623  0.36625246  0.49358341  1  0  0.084542  0.113199  0  1.031679  0
H  H79  1  0.17488127  0.63373619  0.50641772  1  0  0.08454  0.113167  0  1.03172  0
C  C80  1  0.16415286  0.70461965  0.04506163  1  0  0.212183  0.633987  0  4.088946  0
C  C81  1  0.83583296  0.29542788  0.95493942  1  0  0.212242  0.633788  0  4.089267  0
C  C82  1  0.27607312  0.52606601  0.06823386  1  0  -0.166698  -0.294804  0  3.891229  0
C  C83  1  0.72387309  0.47394903  0.93176662  1  0  -0.166695  -0.294642  0  3.891201  0
C  C84  1  0.32185765  0.71323536  0.09102321  1  0  -0.168042  -0.1241  0  3.93143  0
C  C85  1  0.67810927  0.28675533  0.90897834  1  0  -0.167953  -0.124016  0  3.931098  0
C  C86  1  0.44214967  0.51353555  0.11316363  1  0  -0.167845  -0.143365  0  3.936415  0
C  C87  1  0.55784564  0.48644216  0.88683669  1  0  -0.167789  -0.143228  0  3.936223  0
C  C88  1  0.50352341  0.68748911  0.13627402  1  0  -0.167744  -0.145466  0  3.947568  0
C  C89  1  0.49645687  0.31249953  0.86372559  1  0  -0.167735  -0.145624  0  3.947825  0
C  C90  1  0.62126524  0.48397687  0.15822829  1  0  -0.166277  -0.142346  0  3.945669  0
C  C91  1  0.37872040  0.51600967  0.84177225  1  0  -0.166325  -0.142239  0  3.945904  0
C  C92  1  0.68485350  0.65418769  0.18148988  1  0  -0.168126  -0.144619  0  3.946004  0
C  C93  1  0.31512155  0.34580090  0.81851108  1  0  -0.168174  -0.144787  0  3.945975  0
C  C94  1  0.79659099  0.44970564  0.20351995  1  0  -0.167712  -0.143025  0  3.944016  0
C  C95  1  0.20339967  0.55028100  0.79648038  1  0  -0.167673  -0.142961  0  3.94391  0
C  C96  1  0.85814925  0.61982166  0.22686217  1  0  -0.166618  -0.142248  0  3.943806  0
C  C97  1  0.14189693  0.38016389  0.77313719  1  0  -0.166782  -0.142507  0  3.943892  0
C  C98  1  0.96330680  0.41622773  0.24908537  1  0  -0.168002  -0.142648  0  3.944229  0
C  C99  1  0.03675263  0.58377613  0.75091318  1  0  -0.167954  -0.142737  0  3.944236  0
C  C100  1  0.02264429  0.58659178  0.27247917  1  0  -0.168934  -0.145317  0  3.944951  0
C  C101  1  0.97739783  0.41342078  0.72752038  1  0  -0.168941  -0.145117  0  3.94488  0
C  C102  1  0.12262027  0.38292338  0.29480558  1  0  -0.166773  -0.142603  0  3.94554  0
C  C103  1  0.87738854  0.61709294  0.70519315  1  0  -0.166797  -0.142623  0  3.945533  0
C  C104  1  0.18116010  0.55279505  0.31824462  1  0  -0.168098  -0.143457  0  3.945943  0
C  C105  1  0.81885467  0.44721691  0.68175465  1  0  -0.168054  -0.143428  0  3.945908  0
C  C106  1  0.27989809  0.34902796  0.34058383  1  0  -0.166476  -0.142122  0  3.94487  0
C  C107  1  0.72014072  0.65096865  0.65941387  1  0  -0.166519  -0.142005  0  3.944763  0
C  C108  1  0.33940763  0.51877275  0.36399517  1  0  -0.168118  -0.143947  0  3.945807  0
C  C109  1  0.66063836  0.48122407  0.63600400  1  0  -0.168145  -0.144112  0  3.945898  0
C  C110  1  0.44388242  0.31430407  0.38617855  1  0  -0.16784  -0.144702  0  3.94868  0
C  C111  1  0.55614583  0.68569457  0.61381937  1  0  -0.167926  -0.14466  0  3.948809  0
C  C112  1  0.50086410  0.48405762  0.40965436  1  0  -0.166973  -0.142489  0  3.947519  0
C  C113  1  0.49913106  0.51594047  0.59034726  1  0  -0.166963  -0.142597  0  3.947523  0
C  C114  1  0.61574449  0.27884398  0.43156708  1  0  -0.16631  -0.142591  0  3.934964  0
C  C115  1  0.38423239  0.72115817  0.56843329  1  0  -0.166291  -0.142561  0  3.934935  0
C  C116  1  0.66566202  0.44817350  0.45526432  1  0  -0.170004  -0.098544  0  3.965414  0
C  C117  1  0.33430963  0.55182859  0.54473739  1  0  -0.170021  -0.098603  0  3.965645  0
C  C118  1  0.79303110  0.24027904  0.47668564  1  0  -0.247681  -0.36077  0  3.95732  0
C  C119  1  0.20694084  0.75972300  0.52331457  1  0  -0.247549  -0.360541  0  3.957047  0
O  O120  1  0.30315606  0.60101738  0.02368016  1  0  -0.339212  -0.546462  0  2.545004  0
O  O121  1  0.69685793  0.39905791  0.97632188  1  0  -0.339191  -0.546399  0  2.545136  0
O  O122  1  0.93622162  0.94005536  0.04777866  1  0  -0.313285  -0.489749  0  2.330579  0
O  O123  1  0.06376226  0.05997864  0.95222353  1  0  -0.31341  -0.489813  0  2.330565  0
