# generated using pymatgen
data_CoH20C30S(NO3)2
_symmetry_space_group_name_H-M   'P 1'
_cell_length_a   15.60583856
_cell_length_b   15.60583848
_cell_length_c   16.66392642
_cell_angle_alpha   101.21405841
_cell_angle_beta   101.21321215
_cell_angle_gamma   119.83195055
_symmetry_Int_Tables_number   1
_chemical_formula_structural   CoH20C30S(NO3)2
_chemical_formula_sum   'Co4 H80 C120 S4 N8 O24'
_cell_volume   3244.85556925
_cell_formula_units_Z   4
loop_
 _symmetry_equiv_pos_site_id
 _symmetry_equiv_pos_as_xyz
  1  'x, y, z'
loop_
 _atom_site_type_symbol
 _atom_site_label
 _atom_site_symmetry_multiplicity
 _atom_site_fract_x
 _atom_site_fract_y
 _atom_site_fract_z
 _atom_site_occupancy
 _atom_site_pbe_bader_charge
 _atom_site_pbe_bader_spin_density
 _atom_site_pbe_cm5_charge
 _atom_site_pbe_ddec_charge
 _atom_site_pbe_ddec_spin_density
 _atom_site_pbe_ddec_sum_bond_order
 _atom_site_pbe_magmom
Co  Co0  1  0.93120334  0.49539081  0.38058845  1  1.287069  2.592112  0.676633  0.869487  2.830185  2.517165  2.571
Co  Co1  1  0.50460473  0.06879565  0.11940999  1  1.287076  2.592104  0.676617  0.869407  2.830183  2.517215  2.571
Co  Co2  1  0.06879451  0.50460539  0.61940941  1  1.28721  2.592091  0.676599  0.869445  2.830175  2.517256  2.571
Co  Co3  1  0.49539156  0.93120361  0.88058934  1  1.287191  2.592085  0.676635  0.869474  2.830167  2.517224  2.571
H  H4  1  0.69908456  0.32644457  0.34154936  1  0.160864  0.001573  0.118612  0.100245  0.000369  1.021601  0.001
H  H5  1  0.53499763  0.31715600  0.33575228  1  0.098811  0.000666  0.1026  0.108068  0.000248  1.027503  0.0
H  H6  1  0.71942463  0.65732204  0.42543029  1  0.100419  0.000767  0.106033  0.123256  0.000353  1.017623  0.0
H  H7  1  0.87599350  0.65144769  0.42709369  1  0.101014  0.001573  0.113206  0.081347  0.000387  1.021775  0.001
H  H8  1  0.43508934  0.34106992  0.40463865  1  0.053464  2.7e-05  0.097807  0.096644  1.4e-05  1.025233  0.0
H  H9  1  0.27838009  0.34394464  0.40214655  1  0.042356  7.8e-05  0.099566  0.095899  5.1e-05  1.014079  0.0
H  H10  1  0.41916952  0.63479684  0.34863077  1  0.062493  2.7e-05  0.100635  0.103949  2.3e-05  1.021744  0.0
H  H11  1  0.57416494  0.63151934  0.35060326  1  0.097241  4.3e-05  0.102213  0.105794  2.7e-05  1.026389  0.0
H  H12  1  0.13019419  0.32397294  0.31562976  1  0.054091  0.000819  0.108674  0.113504  0.000366  0.992531  0.0
H  H13  1  0.97715531  0.33514279  0.31699104  1  0.088098  0.001389  0.118366  0.088344  0.000356  0.997917  0.001
H  H14  1  0.16526515  0.65977760  0.42107409  1  0.10123  0.001469  0.116625  0.085658  0.000261  1.002442  0.001
H  H15  1  0.32791584  0.66230238  0.43079828  1  0.087474  0.000758  0.103416  0.10765  0.00035  1.028517  0.0
H  H16  1  0.96638817  0.23565268  0.54868799  1  0.092241  0.000211  0.109101  0.121177  2.2e-05  1.022431  0.0
H  H17  1  0.87165559  0.04531139  0.53307767  1  0.081808  0.000143  0.109424  0.113685  7.7e-05  0.989273  0.0
H  H18  1  0.60853768  0.97945971  0.32743922  1  0.119069  4.3e-05  0.108184  0.115382  -4.8e-05  1.013351  0.0
H  H19  1  0.70842045  0.16723683  0.33658492  1  0.149552  0.000412  0.110495  0.129539  0.000121  1.030647  0.0
H  H20  1  0.76099042  0.89227204  0.59636844  1  0.088761  5.8e-05  0.110466  0.115591  3.1e-05  0.991285  0.0
H  H21  1  0.71380704  0.91822371  0.73147563  1  0.118046  0.000387  0.11141  0.117109  0.000198  0.983114  0.0
H  H22  1  0.42707608  0.86884871  0.57907957  1  0.0989  0.000315  0.106544  0.111045  0.000137  1.015137  0.0
H  H23  1  0.47929609  0.85492738  0.44565262  1  0.076131  6.5e-05  0.11128  0.116418  3.2e-05  0.98876  0.0
H  H24  1  0.67355788  0.30092193  0.15845208  1  0.160979  0.001573  0.118618  0.100318  0.000369  1.021509  0.001
H  H25  1  0.68284472  0.46500836  0.16424921  1  0.098754  0.000666  0.102608  0.108059  0.000248  1.027493  0.0
H  H26  1  0.34267963  0.28057776  0.07457058  1  0.100435  0.000767  0.106052  0.123305  0.000353  1.017581  0.0
H  H27  1  0.34855424  0.12400878  0.07290732  1  0.10117  0.001573  0.113198  0.081336  0.000387  1.021776  0.001
H  H28  1  0.65893317  0.56491549  0.09536691  1  0.053497  2.7e-05  0.097798  0.096634  1.4e-05  1.02534  0.0
H  H29  1  0.65605520  0.72162291  0.09785678  1  0.042351  7.8e-05  0.099568  0.095926  5.1e-05  1.014067  0.0
H  H30  1  0.36519786  0.58082691  0.15136428  1  0.062459  2.7e-05  0.100631  0.10395  2.3e-05  1.021719  0.0
H  H31  1  0.36847786  0.42583252  0.14939075  1  0.097065  4.3e-05  0.102235  0.105836  2.7e-05  1.026384  0.0
H  H32  1  0.67602514  0.86980414  0.18437089  1  0.054113  0.000819  0.108696  0.113551  0.000366  0.992475  0.0
H  H33  1  0.66485725  0.02284326  0.18300733  1  0.088115  0.001389  0.118352  0.088333  0.000356  0.99789  0.001
H  H34  1  0.34022298  0.83473535  0.07893064  1  0.101248  0.001469  0.116606  0.08566  0.000261  1.002437  0.001
H  H35  1  0.33769707  0.67208465  0.06920816  1  0.087426  0.000758  0.103445  0.107673  0.00035  1.028499  0.0
H  H36  1  0.76435209  0.03360939  0.95130894  1  0.092237  0.000211  0.109118  0.12118  2.2e-05  1.022431  0.0
H  H37  1  0.95469440  0.12834713  0.96692212  1  0.081638  0.000143  0.109419  0.113665  7.7e-05  0.98931  0.0
H  H38  1  0.02054224  0.39146102  0.17256039  1  0.119046  4.3e-05  0.108209  0.115423  -4.8e-05  1.013306  0.0
H  H39  1  0.83276670  0.29157934  0.16341677  1  0.149321  0.000412  0.110493  0.129581  0.000121  1.030645  0.0
H  H40  1  0.10773291  0.23901084  0.90363024  1  0.08875  5.8e-05  0.110444  0.11555  3.1e-05  0.991282  0.0
H  H41  1  0.08177910  0.28618900  0.76852162  1  0.117922  0.000387  0.111371  0.117093  0.000198  0.983001  0.0
H  H42  1  0.13114979  0.57291952  0.92091665  1  0.098915  0.000315  0.106565  0.111093  0.000137  1.015093  0.0
H  H43  1  0.14507271  0.52070092  0.05434459  1  0.076146  6.5e-05  0.111286  0.116401  3.2e-05  0.988802  0.0
H  H44  1  0.30092749  0.67355757  0.65845811  1  0.161016  0.001572  0.118623  0.100283  0.000369  1.021542  0.001
H  H45  1  0.46501757  0.68284724  0.66425594  1  0.09855  0.000666  0.102635  0.108138  0.000248  1.027374  0.0
H  H46  1  0.28058103  0.34267846  0.57456253  1  0.100312  0.000767  0.106019  0.12325  0.000353  1.017636  0.0
H  H47  1  0.12401456  0.34855547  0.57290545  1  0.101009  0.001572  0.113211  0.081301  0.000387  1.021827  0.001
H  H48  1  0.56491806  0.65893881  0.59537457  1  0.053386  2.7e-05  0.097795  0.096606  1.4e-05  1.025352  0.0
H  H49  1  0.72163043  0.65606450  0.59786429  1  0.042386  7.8e-05  0.099554  0.0959  5.1e-05  1.014089  0.0
H  H50  1  0.58082594  0.36519736  0.65136210  1  0.062858  2.7e-05  0.100631  0.103945  2.3e-05  1.021737  0.0
H  H51  1  0.42583211  0.36847966  0.64939196  1  0.097064  4.3e-05  0.102234  0.105847  2.7e-05  1.026356  0.0
H  H52  1  0.86979351  0.67603071  0.68437182  1  0.053899  0.000819  0.108698  0.113484  0.000366  0.992413  0.0
H  H53  1  0.02283549  0.66486517  0.68300646  1  0.088111  0.001389  0.118369  0.088284  0.000356  0.997918  0.001
H  H54  1  0.83473675  0.34023199  0.57893770  1  0.101401  0.001469  0.116579  0.085614  0.000261  1.002521  0.001
H  H55  1  0.67207976  0.33769849  0.56921142  1  0.087645  0.000758  0.103429  0.107666  0.00035  1.028521  0.0
H  H56  1  0.03359720  0.76433664  0.45131781  1  0.092112  0.000211  0.109046  0.121116  2.2e-05  1.022472  0.0
H  H57  1  0.12833604  0.95468270  0.46692650  1  0.082013  0.000143  0.109413  0.113698  7.7e-05  0.989238  0.0
H  H58  1  0.39145861  0.02053758  0.67255856  1  0.119113  4.3e-05  0.108217  0.115473  -4.7e-05  1.013294  0.0
H  H59  1  0.29158063  0.83276643  0.66342378  1  0.149481  0.000412  0.110468  0.129505  0.000121  1.030643  0.0
H  H60  1  0.23900430  0.10772374  0.40363059  1  0.088702  5.8e-05  0.110464  0.115552  3.1e-05  0.99137  0.0
H  H61  1  0.28618455  0.08177750  0.26852260  1  0.118123  0.000388  0.111349  0.117077  0.000198  0.983024  0.0
H  H62  1  0.57291232  0.13113636  0.42091341  1  0.099083  0.000315  0.106558  0.111111  0.000136  1.015085  0.0
H  H63  1  0.52068605  0.14505554  0.55434186  1  0.076262  6.5e-05  0.111267  0.116333  3.2e-05  0.988839  0.0
H  H64  1  0.32644230  0.69907359  0.84154307  1  0.161021  0.001573  0.118611  0.100263  0.000369  1.021517  0.001
H  H65  1  0.31715233  0.53498346  0.83574592  1  0.098688  0.000666  0.102643  0.108141  0.000248  1.027392  0.0
H  H66  1  0.65732061  0.71941978  0.92543094  1  0.10036  0.000767  0.106029  0.123292  0.000353  1.017575  0.0
H  H67  1  0.65144362  0.87598807  0.92709066  1  0.101136  0.001573  0.113219  0.081329  0.000387  1.021806  0.001
H  H68  1  0.34106467  0.43508723  0.90462972  1  0.053413  2.7e-05  0.097782  0.096618  1.4e-05  1.025298  0.0
H  H69  1  0.34393873  0.27837503  0.90214069  1  0.070132  7.8e-05  0.099544  0.095885  5.1e-05  1.014045  0.0
H  H70  1  0.63480239  0.41917324  0.84863832  1  0.06286  2.7e-05  0.100634  0.103937  2.3e-05  1.021744  0.0
H  H71  1  0.63152155  0.57416584  0.85060597  1  0.097045  4.3e-05  0.102219  0.105827  2.7e-05  1.026323  0.0
H  H72  1  0.32396962  0.13020342  0.81563145  1  0.053933  0.000819  0.108715  0.113536  0.000366  0.992425  0.0
H  H73  1  0.33513674  0.97716387  0.81699600  1  0.088109  0.001389  0.118358  0.08829  0.000356  0.997928  0.001
H  H74  1  0.65976859  0.16526389  0.92106544  1  0.101423  0.00147  0.11658  0.0856  0.000261  1.002535  0.001
H  H75  1  0.66230240  0.32792160  0.93079419  1  0.087426  0.000758  0.103411  0.1076  0.00035  1.028546  0.0
H  H76  1  0.23566221  0.96639982  0.04868579  1  0.092064  0.000211  0.109045  0.121106  2.2e-05  1.022513  0.0
H  H77  1  0.04531758  0.87166213  0.03307701  1  0.081872  0.000143  0.10941  0.113676  7.7e-05  0.989262  0.0
H  H78  1  0.97946193  0.60853935  0.82744235  1  0.119082  4.3e-05  0.108194  0.115472  -4.7e-05  1.01328  0.0
H  H79  1  0.16723426  0.70841856  0.83657715  1  0.149453  0.000412  0.110457  0.129502  0.000121  1.030653  0.0
H  H80  1  0.89227910  0.76099257  0.09637264  1  0.088737  5.8e-05  0.11046  0.115574  3.1e-05  0.991307  0.0
H  H81  1  0.91822738  0.71381001  0.23147588  1  0.117969  0.000388  0.111341  0.117042  0.000198  0.983173  0.0
H  H82  1  0.86886377  0.42708082  0.07908416  1  0.09894  0.000315  0.106622  0.111155  0.000136  1.015034  0.0
H  H83  1  0.85494005  0.47930158  0.94565467  1  0.076179  6.5e-05  0.111247  0.116329  3.2e-05  0.988848  0.0
C  C84  1  0.70045189  0.39806053  0.36033728  1  0.417297  -0.005834  0.046188  0.097721  -0.006522  3.942273  -0.004
C  C85  1  0.60887314  0.39373092  0.35798655  1  -0.04359  0.00505  -0.08666  -0.176301  0.002465  3.943555  0.004
C  C86  1  0.61192304  0.48682296  0.38079979  1  0.006939  -0.008233  0.009914  0.110734  -0.008712  3.99041  -0.005
C  C87  1  0.71059817  0.58169598  0.40613864  1  -0.032263  0.005077  -0.087922  -0.185886  0.002477  3.949421  0.004
C  C88  1  0.79845430  0.57927786  0.40722929  1  0.456637  -0.006204  0.042172  0.099149  -0.006754  3.965205  -0.004
C  C89  1  0.51683236  0.48637889  0.37818346  1  -0.019485  -0.00034  -0.006643  0.059586  -0.000505  3.99201  0.0
C  C90  1  0.43111488  0.40475848  0.39088175  1  -0.023119  -0.001026  -0.086756  -0.116439  -0.001087  3.975937  -0.001
C  C91  1  0.34265314  0.40646187  0.38960834  1  -0.029563  -0.000923  -0.087836  -0.121846  -0.00099  3.987706  -0.001
C  C92  1  0.33704091  0.48995902  0.37607166  1  -0.021824  -0.000573  -0.004666  0.064391  -0.000702  3.988456  0.0
C  C93  1  0.42241952  0.57098463  0.36275328  1  -0.027921  -0.000629  -0.085296  -0.113106  -0.000679  3.962343  0.0
C  C94  1  0.51053135  0.56903081  0.36355924  1  -0.038043  -0.000985  -0.085948  -0.116585  -0.001046  3.968433  -0.001
C  C95  1  0.24381921  0.49262656  0.37480407  1  0.009891  -0.007761  0.015989  0.120826  -0.008223  3.9732  -0.005
C  C96  1  0.14249088  0.40024367  0.34260796  1  0.006832  0.004423  -0.081177  -0.166695  0.002098  3.943504  0.003
C  C97  1  0.05654587  0.40596483  0.34210848  1  0.46565  -0.006064  0.043674  0.097568  -0.006546  3.965474  -0.004
C  C98  1  0.16124395  0.58677485  0.40010096  1  0.498078  -0.006255  0.046552  0.105229  -0.007077  3.943639  -0.004
C  C99  1  0.25145475  0.58771006  0.40393070  1  -0.032965  0.004325  -0.083592  -0.172469  0.002061  3.932173  0.003
C  C100  1  0.90344129  0.32521999  0.44747796  1  1.530987  -0.000419  0.215517  0.557933  -0.002121  4.208331  0.002
C  C101  1  0.84482462  0.21237948  0.44169924  1  0.009144  0.007475  -0.011945  -0.026213  0.003602  3.954293  0.006
C  C102  1  0.88996545  0.17834589  0.49827278  1  0.002755  -0.001088  -0.077502  -0.08039  -0.001471  3.928364  -0.001
C  C103  1  0.83608519  0.07295178  0.49109526  1  0.008645  0.000581  -0.083799  -0.093147  0.000143  3.986596  0.001
C  C104  1  0.73500722  0.00237969  0.42915051  1  -0.25424  -0.003498  -0.023608  -0.081375  -0.003664  3.988212  -0.002
C  C105  1  0.68772306  0.03566665  0.37435669  1  -0.106125  0.000232  -0.083631  -0.098266  -0.000124  3.995791  0.0
C  C106  1  0.74389088  0.14053749  0.37964315  1  0.005654  -0.001093  -0.081372  -0.095323  -0.001679  3.938163  -0.001
C  C107  1  0.62325238  0.87390169  0.51485254  1  -0.223822  -0.002012  -0.021928  -0.081549  -0.0021  3.991024  -0.001
C  C108  1  0.68953974  0.88992147  0.59402608  1  -0.005215  0.000153  -0.082492  -0.096063  -8.9e-05  3.99614  0.0
C  C109  1  0.66273813  0.90299862  0.66829677  1  -0.102974  -0.000134  -0.075821  -0.084969  -0.00057  3.949448  0.0
C  C110  1  0.56866624  0.89635053  0.66281998  1  -0.003916  0.001512  -0.005117  -0.005838  0.000585  3.949744  0.001
C  C111  1  0.50096432  0.87608111  0.58232784  1  -0.032979  -2.8e-05  -0.077867  -0.087493  -0.000477  3.939512  0.0
C  C112  1  0.52918896  0.86722269  0.50827232  1  0.038492  -4e-06  -0.081257  -0.095088  -0.000191  3.992484  0.0
C  C113  1  0.54213142  0.91182047  0.74368036  1  1.554958  -0.006223  0.192697  0.534518  -0.007944  4.239582  -0.006
C  C114  1  0.60194179  0.29955264  0.13966547  1  0.416332  -0.005838  0.046162  0.097603  -0.006522  3.942083  -0.004
C  C115  1  0.60627043  0.39113050  0.14201525  1  -0.043649  0.00505  -0.086616  -0.176174  0.002465  3.94343  0.004
C  C116  1  0.51317841  0.38808031  0.11920077  1  0.006669  -0.008234  0.009922  0.110689  -0.008712  3.990377  -0.005
C  C117  1  0.41830538  0.28940440  0.09386296  1  -0.032098  0.005077  -0.087962  -0.185966  0.002477  3.949429  0.004
C  C118  1  0.42072489  0.20154897  0.09277207  1  0.456483  -0.006204  0.0422  0.099178  -0.006755  3.965128  -0.004
C  C119  1  0.51362165  0.48316987  0.12181621  1  -0.019402  -0.00034  -0.006624  0.059628  -0.000505  3.992037  0.0
C  C120  1  0.59524161  0.56888720  0.10911904  1  -0.023069  -0.001026  -0.086738  -0.116421  -0.001087  3.976159  -0.001
C  C121  1  0.59353980  0.65734905  0.11039456  1  -0.029453  -0.000923  -0.087833  -0.121887  -0.00099  3.987769  -0.001
C  C122  1  0.51004085  0.66295879  0.12393108  1  -0.022083  -0.000574  -0.004649  0.064463  -0.000702  3.988493  0.0
C  C123  1  0.42901204  0.57757775  0.13724482  1  -0.027767  -0.000629  -0.085278  -0.113106  -0.000679  3.962393  0.0
C  C124  1  0.43096661  0.48946789  0.13643694  1  -0.037604  -0.000985  -0.086036  -0.116708  -0.001046  3.968595  -0.001
C  C125  1  0.50737230  0.75618011  0.12519787  1  0.009877  -0.00776  0.015943  0.120727  -0.008222  3.973357  -0.005
C  C126  1  0.59975488  0.85750829  0.15739396  1  0.006901  0.004423  -0.081175  -0.166702  0.002098  3.943408  0.003
C  C127  1  0.59403410  0.94345353  0.15789117  1  0.465617  -0.006063  0.043672  0.097563  -0.006545  3.965386  -0.004
C  C128  1  0.41322505  0.83875616  0.09990191  1  0.498021  -0.006254  0.046591  0.105238  -0.007076  3.943813  -0.004
C  C129  1  0.41228921  0.74854559  0.09607209  1  -0.032938  0.004324  -0.083636  -0.172505  0.002061  3.932363  0.003
C  C130  1  0.67477949  0.09655569  0.05252045  1  1.530987  -0.000417  0.215556  0.557988  -0.00212  4.208035  0.002
C  C131  1  0.78762235  0.15517279  0.05829931  1  0.008841  0.007476  -0.012099  -0.026397  0.003603  3.954388  0.006
C  C132  1  0.82165803  0.11003251  0.00172509  1  0.00303  -0.001088  -0.077481  -0.080314  -0.001471  3.928196  -0.001
C  C133  1  0.92705399  0.16391600  0.00890677  1  0.008822  0.000581  -0.083732  -0.093061  0.000143  3.986497  0.001
C  C134  1  0.99762344  0.26499371  0.07084941  1  -0.25347  -0.003497  -0.023677  -0.081518  -0.003663  3.988291  -0.002
C  C135  1  0.96433785  0.31227700  0.12564627  1  -0.106921  0.000232  -0.083664  -0.098237  -0.000124  3.995637  0.0
C  C136  1  0.85946517  0.25610619  0.12035748  1  0.006036  -0.001092  -0.081324  -0.09536  -0.001679  3.938084  -0.001
C  C137  1  0.12610281  0.37674721  0.98514537  1  -0.22431  -0.002012  -0.02195  -0.081539  -0.0021  3.991029  -0.001
C  C138  1  0.11008201  0.31045993  0.90597072  1  -0.004813  0.000154  -0.082521  -0.096029  -8.9e-05  3.996055  0.0
C  C139  1  0.09700543  0.33725957  0.83169945  1  -0.103071  -0.000134  -0.075724  -0.084898  -0.00057  3.949349  0.0
C  C140  1  0.10365168  0.43132961  0.83717558  1  -0.003941  0.001512  -0.005128  -0.005929  0.000585  3.949938  0.001
C  C141  1  0.12391980  0.49903283  0.91766863  1  -0.03256  -2.8e-05  -0.077862  -0.087538  -0.000477  3.939458  0.0
C  C142  1  0.13278056  0.47080960  0.99172517  1  0.038383  -4e-06  -0.081259  -0.095055  -0.000191  3.99254  0.0
C  C143  1  0.08817690  0.45786516  0.75631774  1  1.554887  -0.006223  0.192571  0.53441  -0.007944  4.239823  -0.006
C  C144  1  0.29955304  0.60193764  0.63966280  1  0.416871  -0.005833  0.046115  0.097643  -0.006523  3.94211  -0.004
C  C145  1  0.39113417  0.60627054  0.64201694  1  -0.04347  0.00505  -0.086617  -0.176286  0.002466  3.94328  0.004
C  C146  1  0.38808502  0.51317759  0.61919887  1  0.0068  -0.008235  0.009991  0.110747  -0.008714  3.990377  -0.005
C  C147  1  0.28940673  0.41830608  0.59385793  1  -0.032328  0.005078  -0.087941  -0.185942  0.002477  3.949585  0.004
C  C148  1  0.20155296  0.42072549  0.59276733  1  0.456745  -0.006204  0.04221  0.099277  -0.006754  3.965257  -0.004
C  C149  1  0.48317415  0.51362343  0.62181885  1  -0.019817  -0.000339  -0.006677  0.059555  -0.000505  3.992091  0.0
C  C150  1  0.56889088  0.59524735  0.60912345  1  -0.022449  -0.001026  -0.086775  -0.11639  -0.001088  3.97612  -0.001
C  C151  1  0.65735106  0.59354505  0.61039677  1  -0.029851  -0.000922  -0.087848  -0.121899  -0.000989  3.98789  -0.001
C  C152  1  0.66295464  0.51004311  0.62393165  1  -0.021967  -0.000574  -0.004617  0.064518  -0.000703  3.988593  0.0
C  C153  1  0.57757439  0.42901003  0.63724240  1  -0.028218  -0.000628  -0.085264  -0.113122  -0.000679  3.962388  0.0
C  C154  1  0.48946727  0.43096711  0.63643667  1  -0.037543  -0.000985  -0.085997  -0.116666  -0.001047  3.968575  -0.001
C  C155  1  0.75617636  0.50737428  0.62520142  1  0.009894  -0.007757  0.015933  0.120717  -0.008219  3.973381  -0.005
C  C156  1  0.85750310  0.59976020  0.65739539  1  0.006958  0.004421  -0.081194  -0.166663  0.002098  3.943396  0.003
C  C157  1  0.94344808  0.59403901  0.65789186  1  0.465656  -0.00606  0.043709  0.097668  -0.006543  3.965298  -0.004
C  C158  1  0.83875634  0.41323318  0.59990666  1  0.498074  -0.006252  0.046617  0.105262  -0.007073  3.943914  -0.004
C  C159  1  0.74854161  0.41229121  0.59607500  1  -0.033443  0.004324  -0.083664  -0.172566  0.002061  3.932301  0.003
C  C160  1  0.09655741  0.67477344  0.55252676  1  1.530849  -0.000424  0.215405  0.557784  -0.002125  4.208044  0.002
C  C161  1  0.15517644  0.78761983  0.55830696  1  0.024459  0.007468  -0.011963  -0.026301  0.003603  3.954356  0.006
C  C162  1  0.11002933  0.82165125  0.50173189  1  -0.011989  -0.001079  -0.07747  -0.080386  -0.001473  3.92837  -0.001
C  C163  1  0.16391270  0.92704511  0.50890633  1  0.008226  0.000581  -0.083661  -0.092983  0.000143  3.986417  0.001
C  C164  1  0.26499302  0.99761719  0.57085090  1  -0.254478  -0.003501  -0.023652  -0.081387  -0.003666  3.988295  -0.002
C  C165  1  0.31227407  0.96433178  0.62564804  1  -0.106039  0.000232  -0.083722  -0.098489  -0.000124  3.995868  0.0
C  C166  1  0.25611022  0.85946642  0.62036687  1  0.005542  -0.001094  -0.081298  -0.095154  -0.001681  3.938028  -0.001
C  C167  1  0.37673682  0.12609426  0.48514133  1  -0.224096  -0.002013  -0.021953  -0.081578  -0.002101  3.990991  -0.001
C  C168  1  0.31045494  0.11007752  0.40596691  1  -0.004643  0.000154  -0.082574  -0.096101  -8.9e-05  3.996371  0.0
C  C169  1  0.33725340  0.09699927  0.33169426  1  -0.103413  -0.000135  -0.075743  -0.084856  -0.00057  3.949388  0.0
C  C170  1  0.43132449  0.10364757  0.33717035  1  -0.003799  0.001512  -0.005027  -0.00589  0.000586  3.950161  0.001
C  C171  1  0.49902245  0.12390695  0.41765878  1  -0.03268  -2.8e-05  -0.077973  -0.087723  -0.000477  3.939514  0.0
C  C172  1  0.47079942  0.13276627  0.49171775  1  0.038032  -4e-06  -0.081206  -0.094879  -0.000191  3.992264  0.0
C  C173  1  0.45786488  0.08818141  0.25631944  1  1.554798  -0.006223  0.192626  0.534413  -0.007944  4.239961  -0.006
C  C174  1  0.39806159  0.70044729  0.86033645  1  0.416014  -0.005837  0.046084  0.097605  -0.006523  3.942091  -0.004
C  C175  1  0.39372978  0.60886635  0.85798254  1  -0.043629  0.00505  -0.086641  -0.176322  0.002466  3.943271  0.004
C  C176  1  0.48682259  0.61191633  0.88079893  1  0.006625  -0.008235  0.01002  0.110852  -0.008714  3.990309  -0.005
C  C177  1  0.58169327  0.71059421  0.90613607  1  -0.032022  0.005078  -0.08796  -0.186037  0.002477  3.94946  0.004
C  C178  1  0.57927378  0.79844900  0.90722925  1  0.456544  -0.006204  0.042148  0.099213  -0.006754  3.965226  -0.004
C  C179  1  0.48637778  0.51682721  0.87818269  1  -0.019411  -0.000339  -0.006709  0.059457  -0.000505  3.992157  0.0
C  C180  1  0.40475547  0.43111184  0.89088039  1  -0.022906  -0.001026  -0.086767  -0.116368  -0.001088  3.976155  -0.001
C  C181  1  0.40645651  0.34265218  0.88960633  1  -0.057526  -0.000922  -0.087823  -0.121885  -0.000989  3.987877  -0.001
C  C182  1  0.48995704  0.33704528  0.87607060  1  -0.021855  -0.000574  -0.004581  0.064539  -0.000703  3.988573  0.0
C  C183  1  0.57098978  0.42242523  0.86275796  1  -0.028383  -0.000628  -0.085251  -0.113072  -0.000679  3.96232  0.0
C  C184  1  0.56903283  0.51053246  0.86356195  1  -0.037845  -0.000986  -0.085985  -0.116634  -0.001047  3.968493  -0.001
C  C185  1  0.49262636  0.24382373  0.87480210  1  0.009882  -0.007757  0.015937  0.120758  -0.008219  3.973441  -0.005
C  C186  1  0.40024145  0.14249687  0.84260823  1  0.006856  0.004421  -0.081164  -0.166713  0.002098  3.943543  0.003
C  C187  1  0.40596145  0.05655055  0.84211128  1  0.465791  -0.006061  0.043702  0.097663  -0.006544  3.965377  -0.004
C  C188  1  0.58676733  0.16124354  0.90009680  1  0.497912  -0.006252  0.046574  0.105216  -0.007074  3.943887  -0.004
C  C189  1  0.58771025  0.25146000  0.90392954  1  -0.03309  0.004324  -0.083648  -0.172505  0.002061  3.932307  0.003
C  C190  1  0.32522381  0.90343764  0.94747307  1  1.530902  -0.000425  0.215402  0.557875  -0.002126  4.207947  0.002
C  C191  1  0.21237861  0.84482185  0.94169583  1  0.009218  0.007476  -0.011964  -0.026302  0.003602  3.954257  0.006
C  C192  1  0.17834843  0.88997105  0.99827023  1  0.003125  -0.001089  -0.077451  -0.080376  -0.001473  3.92837  -0.001
C  C193  1  0.07295408  0.83608848  0.99109380  1  0.00846  0.000581  -0.083691  -0.092998  0.000143  3.986473  0.001
C  C194  1  0.00238542  0.73500794  0.92915079  1  -0.254712  -0.0035  -0.023668  -0.0814  -0.003666  3.988337  -0.002
C  C195  1  0.03566706  0.68772441  0.87435139  1  -0.105773  0.000232  -0.083653  -0.098416  -0.000124  3.995786  0.0
C  C196  1  0.14053262  0.74388799  0.87963341  1  0.005582  -0.001094  -0.081301  -0.095199  -0.001681  3.938029  -0.001
C  C197  1  0.87390844  0.62325839  0.01485897  1  -0.222941  -0.002013  -0.02191  -0.081473  -0.002101  3.990885  -0.001
C  C198  1  0.88992687  0.68954175  0.09403310  1  -0.005339  0.000154  -0.082509  -0.09606  -8.9e-05  3.99623  0.0
C  C199  1  0.90300188  0.66274059  0.16830442  1  -0.10315  -0.000135  -0.075739  -0.084789  -0.00057  3.949384  0.0
C  C200  1  0.89635564  0.56867186  0.16282912  1  -0.003884  0.001513  -0.005106  -0.005969  0.000586  3.949944  0.001
C  C201  1  0.87609304  0.50097041  0.08233977  1  -0.032661  -2.9e-05  -0.077951  -0.087584  -0.000477  3.939296  0.0
C  C202  1  0.86723539  0.52919404  0.00827966  1  0.037691  -3e-06  -0.081283  -0.095109  -0.000191  3.992272  0.0
C  C203  1  0.91182017  0.54213126  0.24368002  1  1.554796  -0.006223  0.192629  0.534375  -0.007944  4.239906  -0.006
S  S204  1  0.66322575  0.86814153  0.42192225  1  2.489581  -0.001089  0.469258  0.956387  -0.001323  5.765399  0.0
S  S205  1  0.13186072  0.33677267  0.07807443  1  2.489357  -0.001089  0.469347  0.956572  -0.001322  5.765292  0.0
S  S206  1  0.33676504  0.13184815  0.57807558  1  2.490065  -0.001089  0.469259  0.956316  -0.001323  5.765327  0.0
S  S207  1  0.86815126  0.66323396  0.92192422  1  2.490066  -0.001089  0.469288  0.956388  -0.001323  5.765188  0.0
N  N208  1  0.79450507  0.48936206  0.38449626  1  -1.213682  0.05508  -0.330371  -0.248047  0.028925  3.576916  0.051
N  N209  1  0.06458868  0.49743754  0.37094296  1  -1.229173  0.047588  -0.328925  -0.256309  0.02526  3.585646  0.043
N  N210  1  0.51063908  0.20549717  0.11550585  1  -1.213546  0.05508  -0.33038  -0.248003  0.028924  3.576678  0.051
N  N211  1  0.50256134  0.93541137  0.12905857  1  -1.229162  0.047586  -0.328907  -0.256264  0.025258  3.58569  0.043
N  N212  1  0.20549516  0.51063742  0.61550442  1  -1.213161  0.055078  -0.330425  -0.248119  0.028925  3.576723  0.051
N  N213  1  0.93541000  0.50256632  0.62905942  1  -1.228886  0.047587  -0.328901  -0.256223  0.02526  3.585531  0.043
N  N214  1  0.48936193  0.79450471  0.88449479  1  -1.213209  0.055079  -0.33036  -0.248026  0.028925  3.576728  0.051
N  N215  1  0.49743499  0.06459053  0.87094364  1  -1.228955  0.047585  -0.328891  -0.256181  0.025259  3.585485  0.043
O  O216  1  0.99265057  0.38995884  0.50690520  1  -1.161601  0.089529  -0.310065  -0.563939  0.046496  2.533841  0.074
O  O217  1  0.86128384  0.34982968  0.39056854  1  -1.151576  0.08817  -0.299509  -0.531797  0.046264  2.389061  0.073
O  O218  1  0.73596709  0.83561121  0.43498699  1  -1.302478  -0.000138  -0.327832  -0.534617  -7e-05  2.130417  0.0
O  O219  1  0.57010748  0.80990813  0.34437989  1  -1.299353  -0.000172  -0.308774  -0.512206  -9.3e-05  2.171928  0.0
O  O220  1  0.61640199  0.97022003  0.81648184  1  -1.157255  0.070975  -0.312821  -0.551333  0.036536  2.220312  0.062
O  O221  1  0.44590155  0.86565320  0.73871238  1  -1.147244  0.077625  -0.30208  -0.530502  0.040292  2.225788  0.066
O  O222  1  0.61004142  0.00734451  0.99308955  1  -1.161661  0.089533  -0.310114  -0.564032  0.046499  2.533619  0.074
O  O223  1  0.65016740  0.13871424  0.10942709  1  -1.151421  0.088162  -0.299518  -0.53178  0.046261  2.388968  0.073
O  O224  1  0.16439420  0.26403424  0.06501007  1  -1.302296  -0.000138  -0.327841  -0.534676  -7e-05  2.130525  0.0
O  O225  1  0.19009479  0.42989261  0.15561745  1  -1.299353  -0.000172  -0.308798  -0.512284  -9.3e-05  2.171791  0.0
O  O226  1  0.02977454  0.38359318  0.68351660  1  -1.157354  0.070973  -0.312765  -0.551258  0.036535  2.220302  0.062
O  O227  1  0.13434471  0.55409462  0.76128549  1  -1.147131  0.077625  -0.301996  -0.530421  0.040292  2.225811  0.066
O  O228  1  0.00735278  0.61003844  0.49309324  1  -1.161666  0.089525  -0.310008  -0.563875  0.046496  2.533795  0.074
O  O229  1  0.13871176  0.65016335  0.60944035  1  -1.151553  0.088181  -0.29946  -0.5317  0.046267  2.388838  0.073
O  O230  1  0.26402841  0.16438238  0.56501119  1  -1.302559  -0.000139  -0.327809  -0.534552  -7e-05  2.130556  0.0
O  O231  1  0.42988878  0.19009240  0.65561486  1  -1.29967  -0.000172  -0.308796  -0.512214  -9.3e-05  2.171654  0.0
O  O232  1  0.38359821  0.02978987  0.18351469  1  -1.157243  0.070991  -0.312793  -0.551217  0.036544  2.220296  0.062
O  O233  1  0.55409557  0.13434392  0.26129212  1  -1.147206  0.077622  -0.302056  -0.5304  0.04029  2.225752  0.066
O  O234  1  0.38996267  0.99264664  0.00690492  1  -1.161683  0.089539  -0.310027  -0.563938  0.046502  2.533772  0.074
O  O235  1  0.34983269  0.86128641  0.89055756  1  -1.151567  0.08818  -0.299435  -0.531706  0.046265  2.388903  0.073
O  O236  1  0.83561546  0.73596787  0.93499276  1  -1.302509  -0.000138  -0.327728  -0.534514  -7e-05  2.130664  0.0
O  O237  1  0.80990779  0.57010753  0.84438316  1  -1.299666  -0.000172  -0.308859  -0.512296  -9.3e-05  2.17156  0.0
O  O238  1  0.97021079  0.61639872  0.31648485  1  -1.157171  0.07099  -0.312785  -0.551256  0.036544  2.220343  0.062
O  O239  1  0.86565703  0.44590242  0.23870902  1  -1.147251  0.077619  -0.302094  -0.530442  0.040291  2.225843  0.066
