# generated using pymatgen
data_CuH12C8(N3Cl)2
_symmetry_space_group_name_H-M   'P 1'
_cell_length_a   7.50984449
_cell_length_b   8.95964673
_cell_length_c   9.39001574
_cell_angle_alpha   90.00020679
_cell_angle_beta   89.99990578
_cell_angle_gamma   96.86204014
_symmetry_Int_Tables_number   1
_chemical_formula_structural   CuH12C8(N3Cl)2
_chemical_formula_sum   'Cu2 H24 C16 N12 Cl4'
_cell_volume   627.28655684
_cell_formula_units_Z   2
loop_
 _symmetry_equiv_pos_site_id
 _symmetry_equiv_pos_as_xyz
  1  'x, y, z'
loop_
 _atom_site_type_symbol
 _atom_site_label
 _atom_site_symmetry_multiplicity
 _atom_site_fract_x
 _atom_site_fract_y
 _atom_site_fract_z
 _atom_site_occupancy
 _atom_site_hle17_ddec_charge
 _atom_site_hle17_ddec_spin_density
 _atom_site_hle17_ddec_sum_bond_order
 _atom_site_hle17_magmom
 _atom_site_hse06_10hf_ddec_charge
 _atom_site_hse06_10hf_ddec_spin_density
 _atom_site_hse06_10hf_ddec_sum_bond_order
 _atom_site_hse06_10hf_magmom
 _atom_site_hse06_ddec_charge
 _atom_site_hse06_ddec_spin_density
 _atom_site_hse06_ddec_sum_bond_order
 _atom_site_hse06_magmom
 _atom_site_pbe_cm5_charge
 _atom_site_pbe_ddec_charge
 _atom_site_pbe_ddec_spin_density
 _atom_site_pbe_ddec_sum_bond_order
 _atom_site_pbe_magmom
Cu  Cu0  1  0.00000329  0.99999866  0.49999703  1  0.755175  0.639221  1.907208  0.469  0.720174  0.739472  2.325575  0.586  0.816469  0.805287  2.245635  0.671  0.61526  0.666381  0.697699  2.37409  0.536
Cu  Cu1  1  0.00000243  0.50000010  0.99999767  1  0.755116  0.639214  1.907261  0.469  0.720131  0.73948  2.325633  0.586  0.816496  0.805292  2.245688  0.671  0.615231  0.666333  0.697702  2.374136  0.536
H  H2  1  0.39074026  0.94887168  0.36379310  1  0.10695  0.001002  0.985323  0.0  0.114149  0.001155  1.056043  0.0  0.118243  0.000883  1.050433  0.0  0.122701  0.111263  0.001385  1.059829  0.0
H  H3  1  0.60926159  0.55112791  0.86379357  1  0.106957  0.001001  0.985261  0.0  0.114124  0.001155  1.05603  0.0  0.118215  0.000883  1.050414  0.0  0.122693  0.111237  0.001385  1.059818  0.0
H  H4  1  0.60925715  0.05113077  0.63620629  1  0.107024  0.001003  0.985264  0.0  0.11418  0.001155  1.056026  0.0  0.118272  0.000883  1.050415  0.0  0.122692  0.111292  0.001385  1.059813  0.0
H  H5  1  0.39074248  0.44887455  0.13620689  1  0.106896  0.001001  0.985382  0.0  0.114152  0.001155  1.056047  0.0  0.118245  0.000883  1.050437  0.0  0.122686  0.111266  0.001385  1.059837  0.0
H  H6  1  0.86854309  0.79714603  0.22026029  1  0.096534  -0.000548  0.962065  0.0  0.103862  -0.000285  1.025814  0.0  0.106738  -0.000247  1.021744  0.0  0.121788  0.101699  -0.000292  1.028788  0.0
H  H7  1  0.13145913  0.70285416  0.72025977  1  0.096511  -0.000546  0.962093  0.0  0.103899  -0.000285  1.025776  0.0  0.106773  -0.000247  1.021708  0.0  0.121808  0.101737  -0.000292  1.028753  0.0
H  H8  1  0.13145266  0.20285417  0.77974017  1  0.096513  -0.000547  0.962071  0.0  0.103845  -0.000285  1.025826  0.0  0.106719  -0.000247  1.021757  0.0  0.121776  0.101685  -0.000292  1.028795  0.0
H  H9  1  0.86854579  0.29714492  0.27973750  1  0.096566  -0.000547  0.962067  0.0  0.103859  -0.000285  1.025847  0.0  0.106732  -0.000247  1.02178  0.0  0.121781  0.101695  -0.000292  1.028823  0.0
H  H10  1  0.43611329  0.69141528  0.05832562  1  0.078411  5.6e-05  0.973966  0.0  0.087446  0.000211  1.052023  0.0  0.088735  0.000123  1.050869  0.0  0.098299  0.086449  0.000245  1.052792  0.0
H  H11  1  0.56388769  0.80858319  0.55832916  1  0.078457  5.6e-05  0.973996  0.0  0.087463  0.00021  1.052079  0.0  0.088752  0.000122  1.050927  0.0  0.098298  0.086469  0.000245  1.052837  0.0
H  H12  1  0.56388481  0.30858267  0.94167484  1  0.078405  5.6e-05  0.973968  0.0  0.087435  0.00021  1.052031  0.0  0.088725  0.000123  1.050876  0.0  0.098295  0.086436  0.000245  1.052791  0.0
H  H13  1  0.43611190  0.19141588  0.44167130  1  0.078454  5.5e-05  0.974008  0.0  0.087456  0.000211  1.052089  0.0  0.088745  0.000122  1.050939  0.0  0.09829  0.086458  0.000245  1.052854  0.0
H  H14  1  0.56193191  0.82133968  0.17578457  1  0.082192  0.000502  0.946775  0.0  0.097883  0.000561  1.012378  0.0  0.099199  0.000398  1.011496  0.0  0.104685  0.096829  0.000619  1.013116  0.0
H  H15  1  0.43806889  0.67865923  0.67578676  1  0.082153  0.000502  0.94681  0.0  0.097856  0.000561  1.012414  0.0  0.099174  0.000398  1.011533  0.0  0.104667  0.096803  0.00062  1.013155  0.0
H  H16  1  0.43806619  0.17865828  0.82421802  1  0.082173  0.000499  0.946801  0.0  0.097889  0.000562  1.012386  0.0  0.099205  0.000398  1.011507  0.0  0.104696  0.096831  0.00062  1.013126  0.0
H  H17  1  0.56193219  0.32134098  0.32421477  1  0.082202  0.0005  0.946778  0.0  0.097903  0.000562  1.012367  0.0  0.09922  0.000398  1.011488  0.0  0.104685  0.096845  0.000619  1.013108  0.0
H  H18  1  0.37084831  0.90151692  0.90071013  1  0.080303  0.000477  0.941408  0.0  0.096738  0.000472  1.005204  0.0  0.09827  0.000339  1.004829  0.0  0.087722  0.095462  0.000634  1.005894  0.0
H  H19  1  0.62915098  0.59848393  0.40071028  1  0.08033  0.000479  0.941389  0.0  0.096768  0.000473  1.005177  0.0  0.0983  0.000339  1.004799  0.0  0.087732  0.095488  0.000634  1.005866  0.0
H  H20  1  0.62915294  0.09848441  0.09929139  1  0.080299  0.00048  0.94141  0.0  0.096739  0.000473  1.005198  0.0  0.098272  0.000339  1.00482  0.0  0.087735  0.095459  0.000634  1.005885  0.0
H  H21  1  0.37084611  0.40151627  0.59929018  1  0.080312  0.000479  0.9414  0.0  0.096754  0.000473  1.005186  0.0  0.098288  0.000339  1.00481  0.0  0.087736  0.095476  0.000634  1.005875  0.0
H  H22  1  0.60252304  0.88797829  0.91837553  1  0.073736  -3.2e-05  0.92748  0.0  0.094901  -2.2e-05  0.981023  0.0  0.095081  -2.2e-05  0.982593  0.0  0.093554  0.094808  -5e-06  0.979759  0.0
H  H23  1  0.39747638  0.61202374  0.41837603  1  0.073749  -3.4e-05  0.927458  0.0  0.094911  -2.2e-05  0.981001  0.0  0.095089  -2.2e-05  0.982571  0.0  0.093556  0.094823  -5e-06  0.979734  0.0
H  H24  1  0.39747821  0.11202304  0.08162706  1  0.073727  -3.4e-05  0.927479  0.0  0.094894  -2.1e-05  0.981016  0.0  0.095071  -2.2e-05  0.982586  0.0  0.093554  0.094801  -5e-06  0.97975  0.0
H  H25  1  0.60252071  0.38797646  0.58162443  1  0.073738  -3.4e-05  0.927443  0.0  0.094894  -2.2e-05  0.981003  0.0  0.095074  -2.2e-05  0.982575  0.0  0.093556  0.094805  -5e-06  0.97974  0.0
C  C26  1  0.27615977  0.90047065  0.30175806  1  0.167148  -0.004086  3.622161  -0.002  0.094358  -4.8e-05  3.878235  0.001  0.111654  -0.001304  3.889008  0.0  0.155554  0.084104  0.00099  3.870449  0.002
C  C27  1  0.72384233  0.59952984  0.80175854  1  0.167249  -0.004093  3.622114  -0.002  0.094421  -4.7e-05  3.878223  0.001  0.11173  -0.001305  3.888985  0.0  0.155575  0.084157  0.00099  3.870441  0.002
C  C28  1  0.72383881  0.09953068  0.69824134  1  0.167009  -0.004099  3.622295  -0.002  0.094254  -4.9e-05  3.878366  0.001  0.111556  -0.001304  3.889131  0.0  0.155541  0.083989  0.000991  3.870588  0.002
C  C29  1  0.27616024  0.40047149  0.19824086  1  0.167137  -0.004088  3.622173  -0.002  0.094305  -4.8e-05  3.878274  0.001  0.111601  -0.001305  3.889052  0.0  0.155555  0.084044  0.00099  3.870493  0.002
C  C30  1  0.01296814  0.82160349  0.22552712  1  0.210483  -0.004562  3.695241  -0.002  0.163664  -0.001197  3.976588  0.0  0.178707  -0.001995  3.990191  -0.001  0.142428  0.154117  -0.000522  3.968058  0.0
C  C31  1  0.98703274  0.67839671  0.72552647  1  0.210547  -0.004596  3.695216  -0.002  0.16367  -0.001195  3.976566  0.0  0.178715  -0.001995  3.990168  -0.001  0.142435  0.15412  -0.000522  3.968032  0.0
C  C32  1  0.98703028  0.17839671  0.77447334  1  0.210516  -0.004601  3.695259  -0.002  0.163689  -0.001196  3.976611  0.0  0.178734  -0.001994  3.990212  -0.001  0.142454  0.154135  -0.000522  3.968077  0.0
C  C33  1  0.01296818  0.32160237  0.27447080  1  0.210486  -0.004578  3.695331  -0.002  0.16371  -0.001195  3.976638  0.0  0.178756  -0.001995  3.990241  -0.001  0.142462  0.154159  -0.000522  3.968109  0.0
C  C34  1  0.45116736  0.80682581  0.09884012  1  -0.022088  0.001379  3.630894  0.001  -0.098035  0.001342  3.885952  0.001  -0.094728  0.000967  3.896796  0.001  -0.056677  -0.099793  0.001579  3.878262  0.002
C  C35  1  0.54883356  0.69317282  0.59884009  1  -0.022061  0.001384  3.631158  0.001  -0.098053  0.001341  3.886233  0.001  -0.094756  0.000968  3.897093  0.001  -0.056696  -0.099816  0.001579  3.878547  0.002
C  C36  1  0.54883090  0.19317327  0.90116140  1  -0.022061  0.001387  3.630955  0.001  -0.098038  0.001341  3.886022  0.001  -0.094735  0.000967  3.896873  0.001  -0.056704  -0.099792  0.001579  3.878322  0.002
C  C37  1  0.45116604  0.30682626  0.40115931  1  -0.02217  0.001388  3.631031  0.001  -0.098083  0.001341  3.886098  0.001  -0.094787  0.000967  3.89696  0.001  -0.056656  -0.099836  0.001579  3.878402  0.002
C  C38  1  0.48400051  0.91810443  0.97587716  1  -0.121488  0.000511  3.670248  0.0  -0.162408  0.000571  3.934819  0.001  -0.164232  0.000381  3.949219  0.0  -0.166236  -0.160998  0.000853  3.924558  0.001
C  C39  1  0.51599865  0.58189668  0.47587846  1  -0.12158  0.000505  3.670373  0.0  -0.162469  0.000571  3.934918  0.001  -0.164286  0.000382  3.949314  0.0  -0.166279  -0.161062  0.000853  3.924659  0.001
C  C40  1  0.51600073  0.08189690  0.02412436  1  -0.121515  0.000501  3.670293  0.0  -0.162421  0.000571  3.93486  0.001  -0.164236  0.000382  3.949254  0.0  -0.16628  -0.161009  0.000853  3.924591  0.001
C  C41  1  0.48399859  0.41810464  0.52412306  1  -0.121528  0.000505  3.670274  0.0  -0.162431  0.00057  3.934824  0.001  -0.164257  0.000382  3.949228  0.0  -0.166281  -0.16102  0.000853  3.924561  0.001
N  N42  1  0.10208937  0.89989528  0.33429059  1  -0.378015  0.064709  3.316223  0.083  -0.327841  0.047157  3.631622  0.063  -0.364404  0.03881  3.650375  0.056  -0.369559  -0.306458  0.051477  3.62055  0.066
N  N43  1  0.89791119  0.60010420  0.83429085  1  -0.378042  0.064717  3.316157  0.083  -0.327859  0.047155  3.631586  0.063  -0.364443  0.038808  3.650363  0.056  -0.369561  -0.306466  0.051477  3.620494  0.066
N  N44  1  0.89790788  0.10010604  0.66570774  1  -0.377925  0.064716  3.316172  0.083  -0.32776  0.047154  3.631554  0.063  -0.364319  0.038807  3.650301  0.056  -0.369511  -0.306366  0.051476  3.62047  0.066
N  N45  1  0.10209123  0.39989601  0.16570748  1  -0.378007  0.064713  3.316263  0.083  -0.327828  0.047156  3.631662  0.063  -0.364413  0.038809  3.650447  0.056  -0.36953  -0.306438  0.051476  3.620582  0.066
N  N46  1  0.28879992  0.82634482  0.17884013  1  0.052034  0.001244  3.547674  0.002  0.178951  0.000935  3.726311  0.001  0.169186  0.000689  3.750163  0.001  -0.134072  0.184317  0.001096  3.712066  0.001
N  N47  1  0.71120088  0.67365409  0.67884088  1  0.051886  0.00124  3.547958  0.002  0.178934  0.000933  3.726453  0.001  0.169166  0.00069  3.750311  0.001  -0.13403  0.184299  0.001096  3.712217  0.001
N  N48  1  0.71119584  0.17365538  0.82115927  1  0.051989  0.001245  3.547755  0.002  0.178923  0.000934  3.72637  0.001  0.169147  0.00069  3.750246  0.001  -0.134111  0.18429  0.001096  3.712133  0.001
N  N49  1  0.28880138  0.32634499  0.32115852  1  0.052175  0.00124  3.547584  0.002  0.179029  0.000934  3.726303  0.001  0.169281  0.000689  3.750128  0.001  -0.134056  0.184397  0.001096  3.712057  0.001
N  N50  1  0.12219544  0.77494599  0.12851009  1  -0.277027  0.006643  2.887074  0.009  -0.281987  0.003034  3.163092  0.005  -0.296598  0.001553  3.177191  0.003  -0.221655  -0.272918  0.004373  3.15468  0.006
N  N51  1  0.87780560  0.72505386  0.62850974  1  -0.277012  0.006659  2.887194  0.009  -0.281998  0.003032  3.163195  0.005  -0.296599  0.001553  3.177282  0.003  -0.221674  -0.272924  0.004372  3.154777  0.006
N  N52  1  0.87780298  0.22505421  0.87149037  1  -0.277016  0.006663  2.887105  0.009  -0.28198  0.003033  3.163124  0.005  -0.296588  0.001552  3.177223  0.003  -0.221639  -0.272902  0.004372  3.154707  0.006
N  N53  1  0.12219666  0.27494522  0.37148646  1  -0.277105  0.006652  2.88711  0.009  -0.282045  0.003033  3.163125  0.005  -0.29665  0.001552  3.17721  0.003  -0.221691  -0.272974  0.004373  3.154712  0.006
Cl  Cl54  1  0.73286791  0.00826665  0.37621722  1  -0.526738  0.113111  0.934807  0.14  -0.521747  0.076379  1.221552  0.1  -0.55407  0.056782  1.199083  0.081  -0.286143  -0.502048  0.08872  1.23734  0.11
Cl  Cl55  1  0.26713173  0.49173279  0.87621646  1  -0.526703  0.113113  0.934823  0.14  -0.52174  0.076379  1.2216  0.1  -0.55408  0.056783  1.199136  0.081  -0.286145  -0.502043  0.088718  1.237389  0.11
Cl  Cl56  1  0.26713036  0.99173242  0.62378324  1  -0.526751  0.113109  0.934851  0.14  -0.521747  0.076378  1.22158  0.1  -0.554069  0.056781  1.199112  0.081  -0.286149  -0.502054  0.088717  1.237379  0.11
Cl  Cl57  1  0.73286802  0.50826741  0.12378400  1  -0.526711  0.113109  0.934775  0.14  -0.521742  0.076377  1.221529  0.1  -0.554083  0.05678  1.199066  0.081  -0.286146  -0.502039  0.088718  1.237311  0.11
