# generated using pymatgen
data_ZnH10C20I2N4F
_symmetry_space_group_name_H-M   'P 1'
_cell_length_a   15.36835615
_cell_length_b   15.27713971
_cell_length_c   17.33430368
_cell_angle_alpha   105.54124903
_cell_angle_beta   107.33385613
_cell_angle_gamma   110.83341812
_symmetry_Int_Tables_number   1
_chemical_formula_structural   ZnH10C20I2N4F
_chemical_formula_sum   'Zn4 H40 C80 I8 N16 F4'
_cell_volume   3296.74703165
_cell_formula_units_Z   4
loop_
 _symmetry_equiv_pos_site_id
 _symmetry_equiv_pos_as_xyz
  1  'x, y, z'
loop_
 _atom_site_type_symbol
 _atom_site_label
 _atom_site_symmetry_multiplicity
 _atom_site_fract_x
 _atom_site_fract_y
 _atom_site_fract_z
 _atom_site_occupancy
 _atom_site_pbe_bader_charge
 _atom_site_pbe_bader_spin_density
 _atom_site_pbe_cm5_charge
 _atom_site_pbe_ddec_charge
 _atom_site_pbe_ddec_spin_density
 _atom_site_pbe_ddec_sum_bond_order
 _atom_site_pbe_magmom
Zn  Zn0  1  0.37946360  0.00421072  0.89537626  1  1.19522  0  0.746466  0.643404  0  2.393947  0
Zn  Zn1  1  0.60984165  0.98240838  0.10715945  1  1.199991  0  0.748583  0.650683  0  2.387609  0
Zn  Zn2  1  0.35664995  0.84216195  0.99042499  1  1.195938  0  0.749128  0.646174  0  2.407821  0
Zn  Zn3  1  0.63450389  0.13612318  0.00283242  1  1.192248  0  0.732749  0.625924  0  2.420254  0
H  H4  1  0.29314911  0.13127491  0.98747814  1  0.073043  0  0.117262  0.104563  0  1.002509  0
H  H5  1  0.83398516  0.97971555  0.15030215  1  0.0823  0  0.110746  0.097118  0  1.030958  0
H  H6  1  0.15117142  0.96037240  0.26586168  1  0.032161  0  0.094734  0.096116  0  1.01051  0
H  H7  1  0.84318380  0.94916938  0.89195598  1  0.054868  0  0.101665  0.10659  0  0.994959  0
H  H8  1  0.15005623  0.08589204  0.51670085  1  0.029594  0  0.104661  0.10235  0  0.986338  0
H  H9  1  0.78918814  0.86522195  0.33312380  1  0.033479  0  0.102429  0.101892  0  0.986619  0
H  H10  1  0.33757819  0.14309432  0.55712898  1  0.053123  0  0.100995  0.100198  0  1.003996  0
H  H11  1  0.59934546  0.74938054  0.26904610  1  0.072393  0  0.094621  0.090584  0  1.033131  0
H  H12  1  0.47080088  0.29353693  0.70043227  1  0.089619  0  0.106155  0.110334  0  0.985813  0
H  H13  1  0.50228353  0.62585577  0.10934540  1  0.075386  0  0.098303  0.101634  0  1.004498  0
H  H14  1  0.09737843  0.17885105  0.61970189  1  0.066538  0  0.101861  0.111484  0  0.995067  0
H  H15  1  0.88093195  0.85551795  0.23692682  1  0.076773  0  0.098712  0.106843  0  1.002328  0
H  H16  1  0.40678801  0.51877293  0.77865430  1  0.061761  0  0.091379  0.103401  0  1.013876  0
H  H17  1  0.60960903  0.48229734  0.03669482  1  0.067365  0  0.097429  0.103002  0  1.011481  0
H  H18  1  0.74883001  0.58269815  0.49251482  1  0.098966  0  0.105326  0.124865  0  1.001438  0
H  H19  1  0.01259266  0.40978246  0.48642771  1  0.086137  0  0.105925  0.126262  0  1.002012  0
H  H20  1  0.12681068  0.79107515  0.26778091  1  0.051624  0  0.099975  0.101702  0  0.986177  0
H  H21  1  0.76336922  0.92094347  0.73447530  1  0.042576  0  0.089745  0.087202  0  1.026268  0
H  H22  1  0.45124797  0.68218274  0.29809216  1  0.05006  0  0.101027  0.106887  0  1.002464  0
H  H23  1  0.47196275  0.06581076  0.66189795  1  0.084257  0  0.101329  0.108258  0  0.999768  0
H  H24  1  0.44997166  0.05696840  0.51253096  1  0.077759  0  0.085534  0.087013  0  1.075492  0
H  H25  1  0.46143495  0.68430778  0.44321428  1  0.08241  0  0.088055  0.094154  0  1.053641  0
H  H26  1  0.06322284  0.64016446  0.12742630  1  0.037806  0  0.091082  0.090912  0  1.00841  0
H  H27  1  0.84330675  0.05693187  0.68629121  1  0.037734  0  0.096058  0.09666  0  0.993125  0
H  H28  1  0.02869734  0.65995775  0.98442764  1  0.025366  0  0.092677  0.091635  0  1.002812  0
H  H29  1  0.99859504  0.22300796  0.79853647  1  0.057826  0  0.077594  0.073908  0  1.063625  0
H  H30  1  0.05411974  0.82922122  0.98317411  1  0.060473  0  0.101884  0.110387  0  0.984613  0
H  H31  1  0.07917089  0.25017628  0.95595733  1  0.029632  0  0.091884  0.093444  0  1.012359  0
H  H32  1  0.66442550  0.35717569  0.98270821  1  0.075803  0  0.115932  0.104412  0  1.000788  0
H  H33  1  0.34282139  0.64359146  0.86106610  1  0.104909  0  0.098421  0.084707  0  1.061908  0
H  H34  1  0.61378440  0.97079288  0.29779699  1  0.147312  0  0.118837  0.116396  0  0.992981  0
H  H35  1  0.34572201  0.82776706  0.72127056  1  0.116446  0  0.108643  0.102877  0  1.03059  0
H  H36  1  0.33275081  0.17450576  0.82527602  1  0.071483  0  0.115737  0.109563  0  1.005206  0
H  H37  1  0.67487578  0.82856676  0.01561289  1  0.135261  0  0.10264  0.086564  0  1.073906  0
H  H38  1  0.64391703  0.33135585  0.14242241  1  0.095342  0  0.117241  0.112308  0  0.999492  0
H  H39  1  0.13402758  0.63756495  0.82783608  1  0.111868  0  0.117113  0.110043  0  0.992465  0
H  H40  1  0.27690067  0.93066043  0.12426219  1  0.125808  0  0.105365  0.096958  0  1.051286  0
H  H41  1  0.86350365  0.17715529  0.01087714  1  0.092661  0  0.10161  0.085638  0  1.067043  0
H  H42  1  0.98274986  0.98167100  0.15506298  1  0.059474  0  0.090156  0.091446  0  1.046635  0
H  H43  1  0.15203136  0.12723313  0.98681144  1  0.043657  0  0.097609  0.10001  0  1.025303  0
C  C44  1  0.29944298  0.07775659  0.01656858  1  0.415474  0  0.00911  -0.043939  0  3.951082  0
C  C45  1  0.82756536  0.02969290  0.11702581  1  0.38618  0  0.003909  -0.047055  0  3.975235  0
C  C46  1  0.66260207  0.27852097  0.25328444  1  0.11333  0  -0.056679  -0.157357  0  4.128868  0
C  C47  1  0.11220975  0.70841698  0.72993369  1  0.101516  0  -0.058122  -0.155649  0  4.149373  0
C  C48  1  0.45809707  0.83308125  0.24131700  1  0.052776  0  -0.049034  -0.084433  0  4.102904  0
C  C49  1  0.49529103  0.94021712  0.73162788  1  0.045904  0  -0.044279  -0.068855  0  4.09144  0
C  C50  1  0.49675213  0.30503664  0.89919917  1  0.022187  0  -0.040526  -0.03782  0  4.090659  0
C  C51  1  0.51366306  0.69580533  0.92843389  1  0.034596  0  -0.037803  -0.031104  0  4.061563  0
C  C52  1  0.02198129  0.01772795  0.12025835  1  -0.081734  0  -0.098083  -0.18269  0  3.977578  0
C  C53  1  0.11850810  0.09938133  0.02817371  1  -0.035762  0  -0.091704  -0.17076  0  3.957479  0
C  C54  1  0.98024366  0.06726763  0.07450332  1  0.025935  0  -0.010891  0.043095  0  4.012456  0
C  C55  1  0.16016101  0.04950751  0.07354673  1  -0.001712  0  -0.013361  0.037325  0  4.016794  0
C  C56  1  0.02466219  0.09861243  0.01923157  1  -0.021362  0  -0.012176  0.019828  0  3.958144  0
C  C57  1  0.10243525  0.99859100  0.11281468  1  0.01955  0  -0.012397  0.019428  0  3.966696  0
C  C58  1  0.12402594  0.89450064  0.20414949  1  0.020903  0  -0.102433  -0.151493  0  4.02549  0
C  C59  1  0.87614159  0.00972577  0.87137817  1  -0.126398  0  -0.09317  -0.127894  0  3.95671  0
C  C60  1  0.07519339  0.71451830  0.12654641  1  -0.058679  0  -0.10873  -0.104963  0  4.076105  0
C  C61  1  0.87690265  0.06977882  0.75586796  1  -0.034173  0  -0.106193  -0.099311  0  4.049487  0
C  C62  1  0.31404686  0.18368158  0.60203323  1  -0.012198  0  -0.094327  -0.08488  0  4.035303  0
C  C63  1  0.63977840  0.74614638  0.22722267  1  0.049488  0  -0.097404  -0.08164  0  4.03778  0
C  C64  1  0.38868956  0.26797281  0.68214276  1  -0.013654  0  -0.086472  -0.120821  0  3.973838  0
C  C65  1  0.58535809  0.67674044  0.13777147  1  -0.102376  0  -0.085433  -0.106979  0  3.939908  0
C  C66  1  0.63946964  0.17705624  0.24086325  1  1.031986  0  0.203573  0.336747  0  4.088848  0
C  C67  1  0.17121056  0.81233339  0.75028325  1  1.081849  0  0.200192  0.324907  0  4.122657  0
C  C68  1  0.36096928  0.32254223  0.74109485  1  0.005175  0  -0.00892  0.045748  0  3.991182  0
C  C69  1  0.63551458  0.66965553  0.08229476  1  -0.011276  0  -0.011259  0.045324  0  3.993992  0
C  C70  1  0.25472315  0.28823141  0.71666634  1  -0.276225  0  -0.046676  0.015736  0  3.873714  0
C  C71  1  0.74234609  0.73550842  0.11982312  1  -0.254175  0  -0.052956  -0.002305  0  3.910643  0
C  C72  1  0.17902679  0.20376864  0.63665792  1  0.008229  0  -0.102212  -0.127658  0  4.035221  0
C  C73  1  0.79771473  0.80621308  0.20934162  1  -0.008455  0  -0.106634  -0.13405  0  4.047831  0
C  C74  1  0.20911468  0.15166527  0.57924055  1  -0.048801  0  -0.091579  -0.076828  0  4.029375  0
C  C75  1  0.74603766  0.81112348  0.26306769  1  -0.065842  0  -0.09683  -0.084911  0  4.032109  0
C  C76  1  0.45286733  0.51115384  0.83554307  1  -0.043551  0  -0.098001  -0.177162  0  3.983273  0
C  C77  1  0.56719947  0.49064603  0.97868787  1  -0.112078  0  -0.09566  -0.180686  0  3.986052  0
C  C78  1  0.51800886  0.59915281  0.91624219  1  0.033033  0  -0.010026  0.047598  0  4.019463  0
C  C79  1  0.50058989  0.40195321  0.89841207  1  0.052506  0  -0.008969  0.048652  0  4.014211  0
C  C80  1  0.57550229  0.58733940  0.98966261  1  0.012519  0  -0.013513  0.023878  0  4.007307  0
C  C81  1  0.44090283  0.41301276  0.82585188  1  -0.027313  0  -0.019068  0.018666  0  4.003955  0
C  C82  1  0.11009009  0.79912134  0.20510817  1  -0.039848  0  -0.100591  -0.086095  0  4.050128  0
C  C83  1  0.83227301  0.99355481  0.78270973  1  0.03949  0  -0.103068  -0.084695  0  4.054245  0
C  C84  1  0.03739240  0.62317113  0.64267390  1  0.114592  0  -0.022744  -0.034856  0  4.04575  0
C  C85  1  0.72642918  0.36762587  0.34011384  1  0.114657  0  -0.018762  -0.030931  0  4.044298  0
C  C86  1  0.76943184  0.52514345  0.46336385  1  -0.012223  0  -0.103513  -0.175201  0  3.989987  0
C  C87  1  0.99269524  0.46643340  0.51838341  1  0.156031  0  -0.106412  -0.178247  0  4.01862  0
C  C88  1  0.38955348  0.77631447  0.15039192  1  0.219104  0  0.04059  0.077472  0  3.976868  0
C  C89  1  0.57927362  0.02118949  0.81119757  1  0.284426  0  0.044767  0.078199  0  3.951221  0
C  C90  1  0.70230774  0.44494200  0.38006950  1  -0.198287  0  -0.045798  0.038715  0  3.906331  0
C  C91  1  0.06235121  0.54792649  0.59955691  1  -0.338158  0  -0.046771  0.034769  0  3.908114  0
C  C92  1  0.82207231  0.37821206  0.38948669  1  0.428435  0  0.103583  0.202817  0  3.986083  0
C  C93  1  0.94084942  0.61290979  0.59673766  1  0.455527  0  0.107832  0.204498  0  3.989878  0
C  C94  1  0.89469389  0.45818777  0.47406699  1  0.003013  0  -0.013852  0.00161  0  4.057655  0
C  C95  1  0.86649474  0.53307277  0.51161108  1  0.026211  0  -0.01367  -0.000761  0  4.038373  0
C  C96  1  0.44937578  0.82774622  0.32224374  1  0.030534  0  -0.016547  0.0642  0  4.045102  0
C  C97  1  0.48084161  0.92398118  0.64033447  1  0.04776  0  -0.015863  0.065246  0  4.040309  0
C  C98  1  0.45685140  0.99593949  0.53061595  1  -0.045501  0  -0.103698  -0.133657  0  4.031216  0
C  C99  1  0.45809811  0.74749905  0.42690831  1  -0.013525  0  -0.099012  -0.124027  0  4.001723  0
C  C100  1  0.46979213  0.00125189  0.61373675  1  -0.011229  0  -0.091766  -0.115434  0  4.002767  0
C  C101  1  0.45219841  0.74626704  0.34575878  1  -0.033699  0  -0.093494  -0.1251  0  4.001335  0
C  C102  1  0.47708608  0.84085190  0.57915701  1  -0.258732  0  -0.042951  -0.031108  0  3.814918  0
C  C103  1  0.44562399  0.90679087  0.38185500  1  -0.258928  0  -0.042653  -0.038663  0  3.809172  0
C  C104  1  0.46270017  0.83128188  0.49126976  1  0.033731  0  -0.010198  0.058318  0  3.965533  0
C  C105  1  0.45389494  0.91253184  0.46739995  1  -0.015535  0  -0.011659  0.056261  0  3.982291  0
C  C106  1  0.05584609  0.72551245  0.04644164  1  -0.035563  0  -0.108841  -0.097515  0  4.073511  0
C  C107  1  0.96367224  0.16303649  0.81891873  1  -0.076683  0  -0.109762  -0.091129  0  4.065694  0
C  C108  1  0.07013361  0.82030397  0.04550931  1  -0.043173  0  -0.096614  -0.131122  0  3.971477  0
C  C109  1  0.00870996  0.17876098  0.90779575  1  -0.014715  0  -0.105135  -0.153853  0  4.007054  0
C  C110  1  0.58368212  0.29845761  0.94786418  1  0.420653  0  0.003291  -0.064958  0  4.03403  0
C  C111  1  0.42232690  0.70426461  0.90189572  1  0.363672  0  0.000341  -0.049888  0  3.975466  0
C  C112  1  0.10376177  0.90605582  0.12441546  1  -0.056967  0  -0.011541  0.076708  0  3.999475  0
C  C113  1  0.96690392  0.10136786  0.93484200  1  -0.026604  0  -0.010097  0.077156  0  3.992446  0
C  C114  1  0.54196032  0.91040107  0.24127616  1  0.439084  0  0.012116  -0.03591  0  4.00813  0
C  C115  1  0.42306545  0.89286074  0.76052073  1  0.403494  0  0.003739  -0.038723  0  3.951667  0
C  C116  1  0.41476068  0.20527487  0.86623690  1  0.419509  0  0.004945  -0.053141  0  3.970997  0
C  C117  1  0.59168236  0.79811603  0.98269105  1  0.354429  0  0.003837  -0.041006  0  3.950113  0
C  C118  1  0.63766865  0.27135888  0.16604737  1  0.412253  0  0.010765  -0.023832  0  3.964486  0
C  C119  1  0.15526352  0.70385615  0.81173353  1  0.396109  0  0.008126  -0.033435  0  4.011847  0
C  C120  1  0.29111515  0.97564136  0.08629855  1  0.373446  0  0.003988  -0.047148  0  3.950975  0
C  C121  1  0.84228615  0.13022595  0.04595965  1  0.389625  0  0.002762  -0.046272  0  3.98829  0
C  C122  1  0.24782761  0.03793782  0.06403272  1  0.007545  0  -0.035479  -0.032329  0  4.047756  0
C  C123  1  0.88944205  0.07558003  0.07869800  1  0.042097  0  -0.035252  -0.03072  0  4.053253  0
I  I124  1  0.20506163  0.36151737  0.80348933  1  0.071823  0  0.06479  -0.062854  0  1.501279  0
I  I125  1  0.82375640  0.72867072  0.04178234  1  0.106814  0  0.093879  -0.023461  0  1.615158  0
I  I126  1  0.21282146  0.56539118  0.65500528  1  0.113584  0  0.089413  -0.028395  0  1.561251  0
I  I127  1  0.55919467  0.43572501  0.30984224  1  0.104234  0  0.060119  -0.033413  0  1.310401  0
I  I128  1  0.42453165  0.02120287  0.34322201  1  0.110761  0  0.103829  -0.004208  0  1.55377  0
I  I129  1  0.49992267  0.72943034  0.62106091  1  0.092579  0  0.075109  -0.033994  0  1.450189  0
I  I130  1  0.25734924  0.63390443  0.08586311  1  0.132001  0  0.101824  -0.007126  0  1.4648  0
I  I131  1  0.70898039  0.14501953  0.82830822  1  0.158506  0  0.137703  0.020461  0  1.626344  0
N  N132  1  0.36383435  0.03881869  0.00824993  1  -0.794368  0  -0.286109  -0.182896  0  3.60229  0
N  N133  1  0.75043686  0.05444660  0.10728457  1  -0.779149  0  -0.273323  -0.18175  0  3.531193  0
N  N134  1  0.60436849  0.11462713  0.15602982  1  -0.806972  0  -0.285734  -0.282138  0  3.579587  0
N  N135  1  0.24323585  0.86565870  0.83450722  1  -0.815856  0  -0.274017  -0.284667  0  3.488491  0
N  N136  1  0.42722409  0.81899381  0.10092821  1  -0.770667  0  -0.274184  -0.22734  0  3.500331  0
N  N137  1  0.55954829  0.01865420  0.88116952  1  -0.785252  0  -0.287165  -0.215284  0  3.617877  0
N  N138  1  0.55607639  0.20364892  0.94474049  1  -0.808454  0  -0.275167  -0.185701  0  3.596055  0
N  N139  1  0.44458076  0.80349421  0.93968642  1  -0.769534  0  -0.291682  -0.1893  0  3.637511  0
N  N140  1  0.52358926  0.90149886  0.15824356  1  -0.797466  0  -0.266945  -0.163754  0  3.540215  0
N  N141  1  0.46146094  0.94171301  0.85022212  1  -0.780102  0  -0.279145  -0.179161  0  3.523238  0
N  N142  1  0.45086088  0.14503841  0.89436862  1  -0.786305  0  -0.269176  -0.175531  0  3.518844  0
N  N143  1  0.54898979  0.86177619  0.98941960  1  -0.798891  0  -0.284383  -0.186534  0  3.562362  0
N  N144  1  0.60393654  0.17373415  0.10915853  1  -0.771661  0  -0.279738  -0.175492  0  3.585666  0
N  N145  1  0.23251717  0.79701548  0.87361532  1  -0.792505  0  -0.26941  -0.163917  0  3.511287  0
N  N146  1  0.35852257  0.97510480  0.05096825  1  -0.788811  0  -0.287704  -0.191522  0  3.562039  0
N  N147  1  0.75929222  0.11707564  0.06261146  1  -0.807574  0  -0.274762  -0.184613  0  3.527568  0
F  F148  1  0.91495090  0.68384000  0.63505526  1  -0.632167  0  -0.09858  -0.131055  0  1.339711  0
F  F149  1  0.85108122  0.30863127  0.35410586  1  -0.633319  0  -0.091672  -0.126005  0  1.367963  0
F  F150  1  0.65231115  0.14174138  0.30435792  1  -0.649056  0  -0.086831  -0.146769  0  1.412939  0
F  F151  1  0.16464393  0.86002218  0.69542613  1  -0.650072  0  -0.096418  -0.141993  0  1.329466  0
