# generated using pymatgen
data_PrH8C8NO9
_symmetry_space_group_name_H-M   'P 1'
_cell_length_a   7.51886143
_cell_length_b   8.52199289
_cell_length_c   9.52402300
_cell_angle_alpha   110.68523184
_cell_angle_beta   104.82611849
_cell_angle_gamma   100.25506678
_symmetry_Int_Tables_number   1
_chemical_formula_structural   PrH8C8NO9
_chemical_formula_sum   'Pr2 H16 C16 N2 O18'
_cell_volume   527.04190094
_cell_formula_units_Z   2
loop_
 _symmetry_equiv_pos_site_id
 _symmetry_equiv_pos_as_xyz
  1  'x, y, z'
loop_
 _atom_site_type_symbol
 _atom_site_label
 _atom_site_symmetry_multiplicity
 _atom_site_fract_x
 _atom_site_fract_y
 _atom_site_fract_z
 _atom_site_occupancy
 _atom_site_pbe_bader_spin_density
 _atom_site_pbe_cm5_charge
 _atom_site_pbe_ddec_charge
 _atom_site_pbe_ddec_spin_density
 _atom_site_pbe_ddec_sum_bond_order
 _atom_site_pbe_magmom
Pr  Pr0  1  0.15195785  0.64981506  0.89145225  1  0  1.444808  2.111994  0  2.007363  0
Pr  Pr1  1  0.84803911  0.35018603  0.10854869  1  0  1.444785  2.112032  0  2.00725  0
H  H2  1  0.72877017  0.07181449  0.32627501  1  0  0.322204  0.299294  0  0.945092  0
H  H3  1  0.27122815  0.92818657  0.67372514  1  0  0.322227  0.299322  0  0.945079  0
H  H4  1  0.53346823  0.64346981  0.52453925  1  0  0.111007  0.108016  0  1.01803  0
H  H5  1  0.46653519  0.35652594  0.47546132  1  0  0.111003  0.10801  0  1.018035  0
H  H6  1  0.83312078  0.89772660  0.68834952  1  0  0.112575  0.1224  0  1.02146  0
H  H7  1  0.16687846  0.10227311  0.31164934  1  0  0.112569  0.122351  0  1.02145  0
H  H8  1  0.91495684  0.12007669  0.57561709  1  0  0.131545  0.112822  0  1.018709  0
H  H9  1  0.08504060  0.87992174  0.42438207  1  0  0.131546  0.112819  0  1.018711  0
H  H10  1  0.57512878  0.82341116  0.92941955  1  0  0.312298  0.408681  0  0.913859  0
H  H11  1  0.42486855  0.17659115  0.07057554  1  0  0.312302  0.408712  0  0.91382  0
H  H12  1  0.55248944  0.65241252  0.78013921  1  0  0.309818  0.406881  0  0.910777  0
H  H13  1  0.44750611  0.34758854  0.21985829  1  0  0.309801  0.406886  0  0.910783  0
H  H14  1  0.18739709  0.31147992  0.90918944  1  0  0.305032  0.400783  0  0.932753  0
H  H15  1  0.81260258  0.68852511  0.09081430  1  0  0.305023  0.400801  0  0.932717  0
H  H16  1  0.40147183  0.40603638  0.99984056  1  0  0.307825  0.386209  0  0.946491  0
H  H17  1  0.59852874  0.59396729  0.00016084  1  0  0.307806  0.386195  0  0.94651  0
C  C18  1  0.27305414  0.57742151  0.24866616  1  0  0.206144  0.605083  0  4.238231  0
C  C19  1  0.72695024  0.42257296  0.75133736  1  0  0.206169  0.60511  0  4.238237  0
C  C20  1  0.45761847  0.72162238  0.33327678  1  0  -0.024693  -0.219284  0  3.92904  0
C  C21  1  0.54238311  0.27837204  0.66672092  1  0  -0.024711  -0.219232  0  3.929078  0
C  C22  1  0.57534866  0.74079029  0.48035306  1  0  -0.051998  0.007293  0  3.923937  0
C  C23  1  0.42465427  0.25920810  0.51964824  1  0  -0.051996  0.007248  0  3.92395  0
C  C24  1  0.74255583  0.88238861  0.57305625  1  0  -0.095733  -0.151216  0  3.986224  0
C  C25  1  0.25744389  0.11761247  0.42694628  1  0  -0.095683  -0.151087  0  3.986243  0
C  C26  1  0.79109300  0.00219808  0.51306526  1  0  0.064043  0.116533  0  3.884496  0
C  C27  1  0.20890760  0.99780162  0.48693388  1  0  0.064004  0.116477  0  3.884591  0
C  C28  1  0.51256582  0.84515961  0.26976201  1  0  0.240025  0.510737  0  4.083799  0
C  C29  1  0.48743434  0.15483878  0.73023663  1  0  0.240053  0.510759  0  4.083802  0
C  C30  1  0.01581760  0.59466324  0.50634505  1  0  0.217332  0.504026  0  4.224411  0
C  C31  1  0.98418664  0.40533908  0.49365666  1  0  0.217357  0.504042  0  4.224515  0
C  C32  1  0.07190038  0.04834191  0.97279197  1  0  0.219991  0.477852  0  4.252895  0
C  C33  1  0.92810160  0.95166179  0.02721287  1  0  0.220027  0.477951  0  4.252857  0
N  N34  1  0.68070287  0.98024462  0.36701894  1  0  -0.35777  -0.25751  0  3.562984  0
N  N35  1  0.31929868  0.01975377  0.63298103  1  0  -0.357811  -0.25756  0  3.563014  0
O  O36  1  0.13505362  0.59072429  0.14527251  1  0  -0.413333  -0.706933  0  2.387434  0
O  O37  1  0.86494658  0.40927415  0.85472930  1  0  -0.413329  -0.70696  0  2.387594  0
O  O38  1  0.25166975  0.44614638  0.28406940  1  0  -0.33139  -0.619729  0  2.183751  0
O  O39  1  0.74833177  0.55385198  0.71592845  1  0  -0.331413  -0.619758  0  2.183635  0
O  O40  1  0.42483177  0.84062628  0.13521739  1  0  -0.397472  -0.629456  0  2.32824  0
O  O41  1  0.57516752  0.15936950  0.86478133  1  0  -0.397466  -0.629475  0  2.3282  0
O  O42  1  0.10484516  0.71776920  0.64561396  1  0  -0.364264  -0.62592  0  2.340901  0
O  O43  1  0.89515227  0.28223323  0.35438958  1  0  -0.364292  -0.625976  0  2.341008  0
O  O44  1  0.95170403  0.61202539  0.37831063  1  0  -0.354155  -0.574551  0  2.298382  0
O  O45  1  0.04830111  0.38797555  0.62168768  1  0  -0.354137  -0.574498  0  2.298347  0
O  O46  1  0.20445151  0.98378845  0.94491446  1  0  -0.327607  -0.559551  0  2.296857  0
O  O47  1  0.79554865  0.01621395  0.05508962  1  0  -0.32761  -0.559578  0  2.296923  0
O  O48  1  0.04368108  0.18656805  0.96152625  1  0  -0.344376  -0.585865  0  2.400476  0
O  O49  1  0.95631815  0.81343567  0.03847700  1  0  -0.344373  -0.585862  0  2.400461  0
O  O50  1  0.48657586  0.70524758  0.85363750  1  0  -0.609406  -0.820384  0  2.051842  0
O  O51  1  0.51342011  0.29475476  0.14635838  1  0  -0.609404  -0.820434  0  2.051778  0
O  O52  1  0.29444523  0.40446960  0.91415826  1  0  -0.632465  -0.828248  0  2.084808  0
O  O53  1  0.70555398  0.59553410  0.08584393  1  0  -0.63243  -0.828252  0  2.084786  0
