# generated using pymatgen
data_Zn4H10C28S2Br2O13F2
_symmetry_space_group_name_H-M   'P 1'
_cell_length_a   18.53901646
_cell_length_b   19.72808876
_cell_length_c   32.80562627
_cell_angle_alpha   85.95988348
_cell_angle_beta   73.59419530
_cell_angle_gamma   61.98616980
_symmetry_Int_Tables_number   1
_chemical_formula_structural   Zn4H10C28S2Br2O13F2
_chemical_formula_sum   'Zn16 H40 C112 S8 Br8 O52 F8'
_cell_volume   10133.80254457
_cell_formula_units_Z   4
loop_
 _symmetry_equiv_pos_site_id
 _symmetry_equiv_pos_as_xyz
  1  'x, y, z'
loop_
 _atom_site_type_symbol
 _atom_site_label
 _atom_site_symmetry_multiplicity
 _atom_site_fract_x
 _atom_site_fract_y
 _atom_site_fract_z
 _atom_site_occupancy
 _atom_site_pbe_bader_charge
 _atom_site_pbe_bader_spin_density
 _atom_site_pbe_cm5_charge
 _atom_site_pbe_ddec_charge
 _atom_site_pbe_ddec_spin_density
 _atom_site_pbe_ddec_sum_bond_order
 _atom_site_pbe_magmom
Zn  Zn0  1  0.87429890  0.55549455  0.51862647  1  1.322967  0  0.669758  0.958698  0  2.361624  0
Zn  Zn1  1  0.03818693  0.48548073  0.43837915  1  1.314377  0  0.675133  0.962952  0  2.407943  0
Zn  Zn2  1  0.04191182  0.39795248  0.52372485  1  1.316365  0  0.673419  0.967418  0  2.353605  0
Zn  Zn3  1  0.04703885  0.56007360  0.51849346  1  1.318966  0  0.673715  0.968094  0  2.353317  0
Zn  Zn4  1  0.62500708  0.19280394  0.73223691  1  1.304861  0  0.670851  0.959447  0  2.377596  0
Zn  Zn5  1  0.46332223  0.34976782  0.72539253  1  1.310645  0  0.670385  0.9563  0  2.391805  0
Zn  Zn6  1  0.45806290  0.26550195  0.81288346  1  1.319687  0  0.674651  0.968734  0  2.351768  0
Zn  Zn7  1  0.45369953  0.19158655  0.72961263  1  1.32117  0  0.674236  0.967367  0  2.363816  0
Zn  Zn8  1  0.46314622  0.76234124  0.31202674  1  1.302376  0  0.67142  0.956341  0  2.391951  0
Zn  Zn9  1  0.45239687  0.69261509  0.23112886  1  1.317905  0  0.673684  0.961721  0  2.403615  0
Zn  Zn10  1  0.62641709  0.69230994  0.22939198  1  1.31808  0  0.671232  0.964733  0  2.349893  0
Zn  Zn11  1  0.45846793  0.85205116  0.22625521  1  1.31718  0  0.674051  0.967055  0  2.354211  0
Zn  Zn12  1  0.03629303  0.90024736  0.02461868  1  1.311525  0  0.671788  0.957563  0  2.394233  0
Zn  Zn13  1  0.04972883  0.05600043  0.01846476  1  1.31635  0  0.67184  0.956629  0  2.39058  0
Zn  Zn14  1  0.87434531  0.05939153  0.01971217  1  1.316673  0  0.671922  0.962952  0  2.371737  0
Zn  Zn15  1  0.03800267  0.98434341  0.93714139  1  1.318525  0  0.672452  0.963979  0  2.363199  0
H  H16  1  0.81331087  0.24352417  0.65219074  1  0.1411  0  0.115007  0.144941  0  0.985235  0
H  H17  1  0.54182044  0.48505225  0.62109544  1  0.042029  0  0.09824  0.109032  0  0.979659  0
H  H18  1  0.54703624  0.52517499  0.66653720  1  0.022807  0  0.096735  0.107569  0  0.984572  0
H  H19  1  0.64518423  0.57154655  0.61840016  1  0.04489  0  0.098109  0.110224  0  0.983625  0
H  H20  1  0.63973335  0.53148336  0.57302958  1  0.047889  0  0.098456  0.109511  0  0.980636  0
H  H21  1  0.29146231  0.60048580  0.29588643  1  0.141569  0  0.116784  0.148065  0  0.980776  0
H  H22  1  0.35235505  0.67437990  0.43239224  1  0.051027  0  0.096302  0.104614  0  0.985953  0
H  H23  1  0.26164404  0.76262695  0.42965217  1  0.076481  0  0.09676  0.106749  0  0.986081  0
H  H24  1  0.16507945  0.71379776  0.47684965  1  0.070756  0  0.100736  0.113533  0  0.975133  0
H  H25  1  0.25566953  0.62558443  0.47953225  1  0.062232  0  0.100983  0.11333  0  0.974688  0
H  H26  1  0.81286767  0.60029537  0.29578909  1  0.09639  0  0.115726  0.145308  0  0.9829  0
H  H27  1  0.54617897  0.76280866  0.42937321  1  0.076947  0  0.096825  0.107006  0  0.98504  0
H  H28  1  0.54099598  0.67456307  0.43201011  1  0.070024  0  0.096726  0.105517  0  0.984129  0
H  H29  1  0.63892272  0.62567476  0.47925056  1  0.057699  0  0.097891  0.108514  0  0.982402  0
H  H30  1  0.64423045  0.71381651  0.47669856  1  0.053653  0  0.097809  0.109897  0  0.983078  0
H  H31  1  0.30461087  0.45876836  0.64558151  1  0.137842  0  0.114474  0.143684  0  0.986448  0
H  H32  1  0.33283822  0.17787437  0.63069427  1  0.074505  0  0.099474  0.110244  0  0.979132  0
H  H33  1  0.24216260  0.21774569  0.67613426  1  0.06057  0  0.100697  0.112025  0  0.977359  0
H  H34  1  0.14591289  0.26781270  0.62792234  1  0.056514  0  0.102235  0.115005  0  0.973707  0
H  H35  1  0.23666565  0.22787722  0.58255971  1  0.071064  0  0.101274  0.113611  0  0.975621  0
H  H36  1  0.68701132  0.14979779  0.95442462  1  0.13109  0  0.11642  0.14643  0  0.981581  0
H  H37  1  0.95807641  0.07599965  0.81789635  1  0.071916  0  0.09963  0.109779  0  0.978239  0
H  H38  1  0.95291192  0.98777384  0.82052651  1  0.084256  0  0.099433  0.110124  0  0.978935  0
H  H39  1  0.85470346  0.03671063  0.77338150  1  0.036339  0  0.09817  0.109687  0  0.982362  0
H  H40  1  0.85995949  0.12488268  0.77078095  1  0.052678  0  0.100217  0.112284  0  0.976398  0
H  H41  1  0.19531556  0.05217725  0.84347809  1  0.096392  0  0.115487  0.145105  0  0.983843  0
H  H42  1  0.16697630  0.21500031  0.97656477  1  0.079865  0  0.097062  0.106786  0  0.985755  0
H  H43  1  0.25788326  0.12689565  0.97920707  1  0.065698  0  0.09748  0.106165  0  0.983952  0
H  H44  1  0.35384011  0.17429973  0.93007387  1  0.064966  0  0.102833  0.116176  0  0.972714  0
H  H45  1  0.26305541  0.26239729  0.92752487  1  0.024617  0  0.101264  0.114101  0  0.974932  0
H  H46  1  0.19531151  0.79173371  0.10424499  1  0.120203  0  0.115578  0.14525  0  0.984371  0
H  H47  1  0.25786672  0.03271153  0.07376207  1  0.057471  0  0.097473  0.106327  0  0.984222  0
H  H48  1  0.16688481  0.07274716  0.11912702  1  0.074284  0  0.096651  0.106874  0  0.985549  0
H  H49  1  0.26286581  0.02282716  0.16739948  1  0.070267  0  0.101976  0.115395  0  0.97366  0
H  H50  1  0.35372714  0.98278565  0.12209375  1  0.063434  0  0.102537  0.115872  0  0.973163  0
H  H51  1  0.68665604  0.00657217  0.09780850  1  0.140611  0  0.116405  0.147145  0  0.981506  0
H  H52  1  0.95299357  0.72487621  0.08348823  1  0.024092  0  0.096452  0.10661  0  0.985816  0
H  H53  1  0.95824187  0.76496559  0.12893570  1  0.041661  0  0.099142  0.110151  0  0.978866  0
H  H54  1  0.86026059  0.71867478  0.17696278  1  0.053304  0  0.101428  0.113991  0  0.97389  0
H  H55  1  0.85504794  0.67839005  0.13160894  1  0.046969  0  0.100532  0.112771  0  0.976647  0
C  C56  1  0.86212635  0.56818509  0.43088758  1  1.568077  0  0.226477  0.624337  0  4.177811  0
C  C57  1  0.12346580  0.31571175  0.43858535  1  1.581964  0  0.215252  0.616788  0  4.21621  0
C  C58  1  0.86336216  0.42988052  0.56862305  1  1.570403  0  0.228266  0.627891  0  4.171827  0
C  C59  1  0.13857564  0.43213246  0.56855719  1  1.582415  0  0.227527  0.626581  0  4.176064  0
C  C60  1  0.87578017  0.68390759  0.56077283  1  1.636709  0  0.21646  0.622175  0  4.207791  0
C  C61  1  0.13766181  0.56925151  0.43075355  1  1.547435  0  0.227205  0.62331  0  4.180081  0
C  C62  1  0.63942007  0.31781555  0.68121354  1  1.571274  0  0.228476  0.607784  0  4.172857  0
C  C63  1  0.37720812  0.43447938  0.81068453  1  1.572796  0  0.214955  0.618588  0  4.212599  0
C  C64  1  0.63635273  0.18175497  0.81965992  1  1.572963  0  0.226795  0.626087  0  4.175711  0
C  C65  1  0.36131400  0.18109809  0.81831868  1  1.575037  0  0.228064  0.626957  0  4.174593  0
C  C66  1  0.62396928  0.06613722  0.68858483  1  1.637647  0  0.216834  0.62208  0  4.207958  0
C  C67  1  0.36318488  0.31986742  0.68054630  1  1.560868  0  0.229489  0.608611  0  4.168975  0
C  C68  1  0.36288481  0.68016752  0.31871499  1  1.546426  0  0.229387  0.607541  0  4.172409  0
C  C69  1  0.62277146  0.56585670  0.18851705  1  1.527803  0  0.216153  0.621521  0  4.211708  0
C  C70  1  0.63896956  0.68017356  0.31821861  1  1.579245  0  0.227809  0.608225  0  4.172867  0
C  C71  1  0.63669212  0.81967309  0.18077170  1  1.573507  0  0.22763  0.627578  0  4.172439  0
C  C72  1  0.37698040  0.93264086  0.31195964  1  1.587603  0  0.215348  0.621289  0  4.208097  0
C  C73  1  0.36124826  0.81854949  0.18119795  1  1.579315  0  0.227966  0.628  0  4.1728  0
C  C74  1  0.13775420  0.93019014  0.06879843  1  1.567254  0  0.229553  0.609423  0  4.167595  0
C  C75  1  0.87940168  0.18372844  0.06121397  1  1.580826  0  0.215692  0.62067  0  4.210487  0
C  C76  1  0.86054412  0.93250870  0.06914611  1  1.574579  0  0.228899  0.608615  0  4.171826  0
C  C77  1  0.86094561  0.06953342  0.93158422  1  1.577487  0  0.228328  0.60792  0  4.171262  0
C  C78  1  0.12169543  0.81568469  0.93920932  1  1.563595  0  0.214626  0.620061  0  4.211187  0
C  C79  1  0.13807544  0.06780630  0.93043569  1  1.566171  0  0.228928  0.609265  0  4.169337  0
C  C80  1  0.73672962  0.80323743  0.60100980  1  -0.093407  0  -0.023269  0.062664  0  3.992409  0
C  C81  1  0.76294163  0.94626155  0.64898585  1  -0.010752  0  -0.023143  0.062416  0  3.994861  0
C  C82  1  0.82462882  0.75845728  0.58602687  1  -0.088869  0  -0.028322  -0.17004  0  3.935025  0
C  C83  1  0.67500889  0.99124931  0.66377490  1  -0.16753  0  -0.028714  -0.170358  0  3.935944  0
C  C84  1  0.78552935  0.87776769  0.62608125  1  -0.078514  0  -0.029903  -0.062448  0  4.099995  0
C  C85  1  0.71411804  0.87172849  0.62393356  1  -0.13167  0  -0.029138  -0.060756  0  4.098014  0
C  C86  1  0.20227636  0.22638544  0.36892914  1  0.073243  0  -0.022617  0.060589  0  3.993728  0
C  C87  1  0.29826498  0.02211936  0.38158087  1  0.092349  0  -0.022863  0.063134  0  3.994062  0
C  C88  1  0.17286233  0.24166470  0.41297047  1  -0.137666  0  -0.027977  -0.166557  0  3.933856  0
C  C89  1  0.32770384  0.00666352  0.33757341  1  -0.156218  0  -0.029867  -0.172875  0  3.940055  0
C  C90  1  0.25257728  0.10210336  0.39306790  1  -0.192664  0  -0.029916  -0.06015  0  4.10102  0
C  C91  1  0.24805147  0.14631758  0.35748393  1  -0.190702  0  -0.029284  -0.062301  0  4.09862  0
C  C92  1  0.69583780  0.34638388  0.65266593  1  0.063416  0  -0.010019  -0.046498  0  3.989686  0
C  C93  1  0.80778559  0.40045608  0.59726330  1  0.086382  0  -0.018439  -0.187945  0  3.946391  0
C  C94  1  0.66465255  0.41871624  0.63649034  1  -0.041975  0  -0.00849  0.046719  0  3.891291  0
C  C95  1  0.83791821  0.32727800  0.61416713  1  0.458687  0  0.108311  0.281704  0  4.027242  0
C  C96  1  0.71896769  0.44424675  0.60985285  1  -0.047353  0  0.000481  0.083839  0  3.886765  0
C  C97  1  0.78489730  0.30066782  0.64069146  1  -0.045181  0  -0.094859  -0.234488  0  3.976629  0
C  C98  1  0.58473669  0.49208892  0.63562697  1  0.03006  0  -0.150895  -0.197075  0  3.886684  0
C  C99  1  0.64613185  0.52117005  0.60547799  1  0.004402  0  -0.149733  -0.198715  0  3.876606  0
C  C100  1  0.30579454  0.65228333  0.34720082  1  0.017536  0  -0.009827  -0.046522  0  3.993647  0
C  C101  1  0.19455899  0.59686837  0.40178580  1  0.010227  0  -0.019136  -0.188977  0  3.95405  0
C  C102  1  0.28057515  0.66439020  0.39143016  1  0.029078  0  -0.008835  0.045264  0  3.893964  0
C  C103  1  0.22103024  0.58526719  0.35672650  1  0.483868  0  0.109622  0.2818  0  4.029574  0
C  C104  1  0.22702281  0.63752003  0.41744847  1  -0.003272  0  0.000175  0.084565  0  3.890939  0
C  C105  1  0.27431169  0.61166160  0.33021968  1  -0.026914  0  -0.093768  -0.233571  0  3.972308  0
C  C106  1  0.28790019  0.69972735  0.42860142  1  -0.053252  0  -0.151006  -0.196153  0  3.888778  0
C  C107  1  0.22735740  0.66918288  0.45814822  1  -0.028272  0  -0.14775  -0.197417  0  3.87093  0
C  C108  1  0.69524297  0.65236960  0.34688081  1  -0.025552  0  -0.008796  -0.046022  0  3.990644  0
C  C109  1  0.80681958  0.59653141  0.40178892  1  -0.078999  0  -0.018031  -0.187698  0  3.950877  0
C  C110  1  0.66385222  0.66453521  0.39114626  1  0.063011  0  -0.008603  0.045004  0  3.890945  0
C  C111  1  0.83724535  0.58512123  0.35673250  1  0.518317  0  0.109106  0.281341  0  4.025824  0
C  C112  1  0.71804958  0.63747155  0.41728097  1  0.057236  0  -0.000852  0.084495  0  3.891736  0
C  C113  1  0.78430239  0.61166383  0.33010857  1  0.002641  0  -0.093457  -0.231422  0  3.975164  0
C  C114  1  0.58388545  0.69991187  0.42827237  1  -0.067628  0  -0.150077  -0.193535  0  3.883143  0
C  C115  1  0.64522686  0.66927617  0.45792113  1  -0.024918  0  -0.150218  -0.199346  0  3.876757  0
C  C116  1  0.30550829  0.34830970  0.65262057  1  -0.010948  0  -0.009494  -0.047868  0  3.992108  0
C  C117  1  0.19479995  0.40512195  0.59726594  1  0.017821  0  -0.018495  -0.18985  0  3.953291  0
C  C118  1  0.27285115  0.30483093  0.64025175  1  0.049593  0  -0.00753  0.047539  0  3.892579  0
C  C119  1  0.22842645  0.44836702  0.61047342  1  0.441925  0  0.106458  0.278537  0  4.030792  0
C  C120  1  0.21964486  0.33260642  0.61359343  1  -0.065719  0  0.000281  0.084269  0  3.88959  0
C  C121  1  0.28150434  0.42179641  0.63699962  1  0.027742  0  -0.09573  -0.233296  0  3.977878  0
C  C122  1  0.27104304  0.22864760  0.64391237  1  -0.045968  0  -0.149899  -0.198171  0  3.887577  0
C  C123  1  0.21078716  0.25996808  0.61373649  1  -0.012184  0  -0.147714  -0.198115  0  3.874545  0
C  C124  1  0.29812707  0.58366150  0.82075572  1  0.026624  0  -0.02316  0.060586  0  3.994926  0
C  C125  1  0.20184575  0.66654920  0.92925217  1  0.040196  0  -0.022891  0.060722  0  3.995454  0
C  C126  1  0.32763260  0.50990041  0.83498255  1  -0.135603  0  -0.027852  -0.167398  0  3.933615  0
C  C127  1  0.17201583  0.74029514  0.91498748  1  -0.137142  0  -0.028807  -0.169411  0  3.938043  0
C  C128  1  0.24783833  0.60938955  0.89494117  1  -0.173554  0  -0.029306  -0.060556  0  4.098538  0
C  C129  1  0.25227728  0.64076708  0.85507464  1  -0.156442  0  -0.029196  -0.059877  0  4.10063  0
C  C130  1  0.80436988  0.09777726  0.90309409  1  -0.003203  0  -0.008312  -0.045248  0  3.98921  0
C  C131  1  0.69207231  0.15371594  0.84857517  1  -0.005014  0  -0.019432  -0.190732  0  3.955105  0
C  C132  1  0.83535380  0.08586436  0.85884169  1  0.000601  0  -0.007929  0.046155  0  3.893552  0
C  C133  1  0.66213566  0.16497470  0.89361292  1  0.424729  0  0.107637  0.2805  0  4.031097  0
C  C134  1  0.78090243  0.11300448  0.83282982  1  0.04791  0  -0.000506  0.083239  0  3.886605  0
C  C135  1  0.71531110  0.13852480  0.92009273  1  0.024959  0  -0.093271  -0.231198  0  3.973244  0
C  C136  1  0.91517429  0.05065676  0.82167242  1  -0.059939  0  -0.149504  -0.195729  0  3.886512  0
C  C137  1  0.85366399  0.08130898  0.79212791  1  0.00575  0  -0.148992  -0.197857  0  3.875061  0
C  C138  1  0.19459464  0.09663558  0.90221814  1  0.016981  0  -0.009491  -0.046314  0  3.989905  0
C  C139  1  0.30477544  0.15184880  0.84616188  1  0.045067  0  -0.018099  -0.187899  0  3.949887  0
C  C140  1  0.22690620  0.13729147  0.91779120  1  0.06573  0  -0.008187  0.04539  0  3.890551  0
C  C141  1  0.27120690  0.11035330  0.83112592  1  0.440265  0  0.107409  0.279093  0  4.032769  0
C  C142  1  0.27985995  0.16364217  0.89058621  1  -0.062626  0  0.000653  0.084259  0  3.889229  0
C  C143  1  0.21833308  0.08363097  0.85767252  1  0.007078  0  -0.095801  -0.234306  0  3.978679  0
C  C144  1  0.22877848  0.16985232  0.95772335  1  -0.056239  0  -0.150949  -0.195279  0  3.886967  0
C  C145  1  0.28889801  0.19959292  0.92697762  1  0.025384  0  -0.148546  -0.199151  0  3.870285  0
C  C146  1  0.64271859  0.44641508  0.14886686  1  -0.004253  0  -0.022469  0.061489  0  3.99422  0
C  C147  1  0.85966015  0.30297232  0.10093110  1  -0.028292  0  -0.022835  0.062595  0  3.995801  0
C  C148  1  0.67131450  0.49102749  0.16368702  1  -0.101016  0  -0.027406  -0.16646  0  3.933708  0
C  C149  1  0.83108235  0.25838459  0.08609235  1  -0.12682  0  -0.029981  -0.173279  0  3.943951  0
C  C150  1  0.79113033  0.37151511  0.12383060  1  -0.140496  0  -0.029972  -0.060562  0  4.102219  0
C  C151  1  0.71140017  0.37785287  0.12600101  1  -0.122739  0  -0.028614  -0.060033  0  4.098731  0
C  C152  1  0.19461408  0.90209757  0.09710591  1  -0.020427  0  -0.009624  -0.049104  0  3.995777  0
C  C153  1  0.30487140  0.84558182  0.15262292  1  0.021256  0  -0.018425  -0.189788  0  3.950253  0
C  C154  1  0.22697511  0.94574141  0.10958825  1  0.026313  0  -0.008397  0.045666  0  3.894782  0
C  C155  1  0.27136058  0.80219745  0.13941585  1  0.445178  0  0.109055  0.28236  0  4.027064  0
C  C156  1  0.27994098  0.91809523  0.13634482  1  -0.029575  0  0.001213  0.087094  0  3.890553  0
C  C157  1  0.21838358  0.82872869  0.11283045  1  0.048481  0  -0.094974  -0.232755  0  3.976188  0
C  C158  1  0.22872677  0.02195634  0.10597050  1  -0.056896  0  -0.150232  -0.195699  0  3.888985  0
C  C159  1  0.28881825  0.99069802  0.13623463  1  -0.01229  0  -0.148391  -0.200277  0  3.872417  0
C  C160  1  0.80413718  0.90369274  0.09738268  1  0.062683  0  -0.009855  -0.04715  0  3.99233  0
C  C161  1  0.69225185  0.84942599  0.15250091  1  0.077087  0  -0.018894  -0.189823  0  3.95031  0
C  C162  1  0.83539080  0.83131004  0.11349225  1  -0.043638  0  -0.008138  0.046578  0  3.892452  0
C  C163  1  0.66207054  0.92273008  0.13572954  1  0.465397  0  0.108397  0.281796  0  4.027919  0
C  C164  1  0.78108129  0.80568873  0.14002396  1  -0.043366  0  0.000465  0.083767  0  3.889221  0
C  C165  1  0.71507739  0.94940620  0.10928263  1  -0.046382  0  -0.093885  -0.233173  0  3.974701  0
C  C166  1  0.91531426  0.75796919  0.11439784  1  0.030692  0  -0.150494  -0.197615  0  3.887583  0
C  C167  1  0.85392428  0.72886085  0.14450693  1  0.000777  0  -0.148145  -0.197709  0  3.87349  0
S  S168  1  0.87979758  0.80014651  0.60010592  1  0.29355  0  0.094012  0.156407  0  2.781177  0
S  S169  1  0.61984815  0.94952840  0.64969230  1  0.313775  0  0.092569  0.154425  0  2.779268  0
S  S170  1  0.20112552  0.15809518  0.44035250  1  0.307271  0  0.090397  0.150345  0  2.782934  0
S  S171  1  0.29945907  0.09028088  0.31020893  1  0.313304  0  0.09431  0.156948  0  2.779831  0
S  S172  1  0.29936738  0.51046290  0.89046785  1  0.32852  0  0.09476  0.156433  0  2.777259  0
S  S173  1  0.20043337  0.73967970  0.85950397  1  0.321699  0  0.091186  0.152172  0  2.782655  0
S  S174  1  0.78223658  0.44907555  0.14963369  1  0.30371  0  0.090113  0.149504  0  2.781985  0
S  S175  1  0.72015621  0.30041032  0.10017269  1  0.347889  0  0.094983  0.157924  0  2.781217  0
Br  Br176  1  0.65297270  0.78107810  0.59348844  1  0.004764  0  0.044744  -0.014259  0  1.399355  0
Br  Br177  1  0.84678912  0.96828018  0.65644401  1  0.009218  0  0.046541  -0.009779  0  1.39516  0
Br  Br178  1  0.18708880  0.29817018  0.32729554  1  0.01905  0  0.055495  0.003665  0  1.394949  0
Br  Br179  1  0.31333093  0.95044850  0.42342289  1  0.007108  0  0.04436  -0.014724  0  1.400737  0
Br  Br180  1  0.31307146  0.61081477  0.76407581  1  0.007883  0  0.047021  -0.009056  0  1.395909  0
Br  Br181  1  0.18680397  0.63962339  0.98595298  1  0.010347  0  0.049417  -0.00619  0  1.396572  0
Br  Br182  1  0.52945694  0.46877869  0.15615448  1  0.019848  0  0.053878  0.001  0  1.39269  0
Br  Br183  1  0.97316109  0.28051853  0.09340104  1  0.007634  0  0.046599  -0.011753  0  1.400577  0
O  O184  1  0.99945150  0.50015272  0.50086536  1  -1.237323  0  -0.570944  -1.030727  0  2.528276  0
O  O185  1  0.82346516  0.58397979  0.47079400  1  -1.158628  0  -0.311755  -0.541561  0  2.314327  0
O  O186  1  0.10225155  0.37637278  0.41844324  1  -1.177401  0  -0.311496  -0.531003  0  2.391951  0
O  O187  1  0.94350999  0.38659600  0.55860797  1  -1.15797  0  -0.314085  -0.544331  0  2.365577  0
O  O188  1  0.94216045  0.53092388  0.41417633  1  -1.151074  0  -0.310556  -0.536437  0  2.377917  0
O  O189  1  0.82427001  0.49741910  0.55648004  1  -1.164804  0  -0.31158  -0.539536  0  2.316415  0
O  O190  1  0.10640775  0.31200117  0.47913162  1  -1.143484  0  -0.318543  -0.542593  0  2.315958  0
O  O191  1  0.11651032  0.38397499  0.55925958  1  -1.162252  0  -0.309774  -0.537365  0  2.315115  0
O  O192  1  0.95668030  0.65744239  0.55109024  1  -1.174535  0  -0.31746  -0.539617  0  2.31924  0
O  O193  1  0.11733654  0.49942913  0.55573584  1  -1.166358  0  -0.31485  -0.545832  0  2.367889  0
O  O194  1  0.83571841  0.65292359  0.55092700  1  -1.168622  0  -0.315406  -0.541292  0  2.378964  0
O  O195  1  0.11326939  0.53045066  0.41401907  1  -1.156612  0  -0.31102  -0.536676  0  2.376934  0
O  O196  1  0.11816321  0.58723380  0.47057427  1  -1.148407  0  -0.310302  -0.53935  0  2.314322  0
O  O197  1  0.49996010  0.24976330  0.75026609  1  -1.223286  0  -0.570984  -1.029878  0  2.530105  0
O  O198  1  0.67510556  0.25075214  0.69423114  1  -1.173886  0  -0.313329  -0.542031  0  2.334854  0
O  O199  1  0.39916452  0.43436453  0.77024790  1  -1.146627  0  -0.313873  -0.537734  0  2.385065  0
O  O200  1  0.55615427  0.21886414  0.83621589  1  -1.160624  0  -0.313755  -0.545853  0  2.365098  0
O  O201  1  0.55951402  0.36368414  0.69019941  1  -1.168446  0  -0.307854  -0.533638  0  2.332443  0
O  O202  1  0.67538958  0.16555424  0.77983865  1  -1.165269  0  -0.310372  -0.536263  0  2.322508  0
O  O203  1  0.39357062  0.37567206  0.83285029  1  -1.167984  0  -0.317338  -0.540148  0  2.319485  0
O  O204  1  0.38346279  0.21915630  0.83768967  1  -1.166813  0  -0.30885  -0.536934  0  2.314271  0
O  O205  1  0.54298044  0.09434162  0.69686942  1  -1.179266  0  -0.318152  -0.540038  0  2.319663  0
O  O206  1  0.38288148  0.16633883  0.77827178  1  -1.166901  0  -0.314645  -0.545546  0  2.368407  0
O  O207  1  0.66401844  0.09603073  0.69953286  1  -1.171  0  -0.316098  -0.542287  0  2.382842  0
O  O208  1  0.38835545  0.36532934  0.68996604  1  -1.165442  0  -0.314804  -0.541636  0  2.333975  0
O  O209  1  0.38260319  0.25200840  0.69257278  1  -1.164989  0  -0.307836  -0.535686  0  2.327497  0
O  O210  1  0.50136463  0.75014305  0.24954686  1  -1.222817  0  -0.571049  -1.029424  0  2.531518  0
O  O211  1  0.38802266  0.71674635  0.33701368  1  -1.159778  0  -0.309229  -0.53667  0  2.330817  0
O  O212  1  0.54197002  0.59563037  0.19909623  1  -1.134717  0  -0.312777  -0.535025  0  2.387952  0
O  O213  1  0.67471469  0.66593231  0.27818508  1  -1.176514  0  -0.313431  -0.543465  0  2.328764  0
O  O214  1  0.38186923  0.66530344  0.27872996  1  -1.161357  0  -0.31177  -0.536499  0  2.339509  0
O  O215  1  0.55903577  0.71610349  0.33670427  1  -1.169562  0  -0.309207  -0.53542  0  2.334504  0
O  O216  1  0.66697658  0.59407378  0.19716913  1  -1.163428  0  -0.320012  -0.546284  0  2.318688  0
O  O217  1  0.67567498  0.75148220  0.19218010  1  -1.163783  0  -0.310979  -0.540191  0  2.31546  0
O  O218  1  0.39385212  0.93665155  0.27146573  1  -1.163597  0  -0.317607  -0.540683  0  2.319005  0
O  O219  1  0.55656634  0.86330860  0.19117529  1  -1.159714  0  -0.313552  -0.543906  0  2.367638  0
O  O220  1  0.39820225  0.87176942  0.33202920  1  -1.173466  0  -0.315851  -0.540508  0  2.38551  0
O  O221  1  0.38268385  0.75105245  0.19371683  1  -1.161023  0  -0.313919  -0.543018  0  2.377085  0
O  O222  1  0.38341610  0.86645525  0.19074406  1  -1.162768  0  -0.309179  -0.538576  0  2.312203  0
O  O223  1  0.99922838  0.00025865  0.99964039  1  -1.2335  0  -0.571798  -1.02884  0  2.535453  0
O  O224  1  0.11130092  0.88542165  0.05992804  1  -1.169387  0  -0.313581  -0.540961  0  2.335394  0
O  O225  1  0.96034351  0.15293543  0.05095720  1  -1.156819  0  -0.315904  -0.54124  0  2.387429  0
O  O226  1  0.82498780  0.00020224  0.05684526  1  -1.176969  0  -0.313383  -0.542044  0  2.332857  0
O  O227  1  0.12035232  0.99724370  0.05582486  1  -1.168425  0  -0.308825  -0.535085  0  2.331104  0
O  O228  1  0.94041001  0.88622338  0.05974486  1  -1.168475  0  -0.307984  -0.534093  0  2.333551  0
O  O229  1  0.83469079  0.15650903  0.05215906  1  -1.167965  0  -0.318415  -0.540139  0  2.323974  0
O  O230  1  0.82522412  0.08549845  0.97153764  1  -1.172989  0  -0.312525  -0.539437  0  2.333682  0
O  O231  1  0.10314665  0.87448508  0.91695531  1  -1.174949  0  -0.319419  -0.543019  0  2.320144  0
O  O232  1  0.94077344  0.03155224  0.91320448  1  -1.172725  0  -0.309758  -0.539321  0  2.329921  0
O  O233  1  0.10115208  0.81598972  0.97966053  1  -1.133372  0  -0.313879  -0.53858  0  2.388771  0
O  O234  1  0.12048101  0.08236826  0.97040914  1  -1.16116  0  -0.308378  -0.534895  0  2.332491  0
O  O235  1  0.11227624  0.03134951  0.91258860  1  -1.174006  0  -0.313461  -0.54283  0  2.329049  0
F  F236  1  0.92284441  0.27851120  0.60481362  1  -0.628533  0  -0.105559  -0.141584  0  1.344361  0
F  F237  1  0.19432996  0.54683634  0.33700545  1  -0.627007  0  -0.101765  -0.136481  0  1.349353  0
F  F238  1  0.92209653  0.54649496  0.33711865  1  -0.628541  0  -0.101993  -0.136877  0  1.347546  0
F  F239  1  0.20976717  0.51994456  0.59707051  1  -0.624495  0  -0.106586  -0.142103  0  1.344279  0
F  F240  1  0.57721691  0.20339651  0.91334823  1  -0.630225  0  -0.104811  -0.140607  0  1.344897  0
F  F241  1  0.28989783  0.09465890  0.78865342  1  -0.623256  0  -0.104458  -0.139766  0  1.34654  0
F  F242  1  0.29012849  0.73063057  0.15274580  1  -0.624161  0  -0.104423  -0.139641  0  1.347069  0
F  F243  1  0.57713752  0.97147860  0.14511785  1  -0.62782  0  -0.104961  -0.14116  0  1.344197  0
