# generated using pymatgen
data_Gd2H23C29(N2O7)2
_symmetry_space_group_name_H-M   'P 1'
_cell_length_a   10.44519574
_cell_length_b   11.31242239
_cell_length_c   13.92469321
_cell_angle_alpha   109.82744435
_cell_angle_beta   107.07652994
_cell_angle_gamma   94.78474890
_symmetry_Int_Tables_number   1
_chemical_formula_structural   Gd2H23C29(N2O7)2
_chemical_formula_sum   'Gd4 H46 C58 N8 O28'
_cell_volume   1448.60525962
_cell_formula_units_Z   2
loop_
 _symmetry_equiv_pos_site_id
 _symmetry_equiv_pos_as_xyz
  1  'x, y, z'
loop_
 _atom_site_type_symbol
 _atom_site_label
 _atom_site_symmetry_multiplicity
 _atom_site_fract_x
 _atom_site_fract_y
 _atom_site_fract_z
 _atom_site_occupancy
 _atom_site_pbe_bader_charge
 _atom_site_pbe_bader_spin_density
 _atom_site_pbe_cm5_charge
 _atom_site_pbe_ddec_charge
 _atom_site_pbe_ddec_spin_density
 _atom_site_pbe_ddec_sum_bond_order
 _atom_site_pbe_magmom
Gd  Gd0  1  0.69313416  0.48023191  0.07839895  1  2.164643  0  1.492697  1.999925  0  2.239805  0
Gd  Gd1  1  0.30686990  0.51977427  0.92160330  1  2.164292  0  1.492674  1.999908  0  2.239778  0
Gd  Gd2  1  0.78399449  0.62195345  0.40100882  1  2.188238  0  1.463886  2.053156  0  2.176033  0
Gd  Gd3  1  0.21600721  0.37805078  0.59898948  1  2.18824  0  1.463854  2.053169  0  2.17604  0
H  H4  1  0.91199042  0.48651698  0.55171942  1  0.642497  0  0.310158  0.392883  0  0.941589  0
H  H5  1  0.08801237  0.51348250  0.44827852  1  0.642513  0  0.310147  0.39289  0  0.941562  0
H  H6  1  0.00954569  0.61845584  0.59969866  1  0.636699  0  0.317083  0.410089  0  0.905045  0
H  H7  1  0.99044795  0.38154819  0.40029923  1  0.636623  0  0.317029  0.410063  0  0.905046  0
H  H8  1  0.59900122  0.39689597  0.41698235  1  0.624972  0  0.337139  0.424482  0  0.856945  0
H  H9  1  0.40100715  0.60310651  0.58301838  1  0.625005  0  0.337158  0.424481  0  0.856934  0
H  H10  1  0.62568240  0.51610564  0.52411334  1  0.607767  0  0.331009  0.416512  0  0.879436  0
H  H11  1  0.37434012  0.48389237  0.47589288  1  0.607801  0  0.330955  0.416483  0  0.879421  0
H  H12  1  0.08676769  0.36116312  0.98023040  1  0.42218  0  0.310265  0.309557  0  0.945206  0
H  H13  1  0.91323298  0.63884107  0.01977054  1  0.422421  0  0.310238  0.30953  0  0.945203  0
H  H14  1  0.24685021  0.33327918  0.00242967  1  0.476563  0  0.31351  0.31888  0  0.946884  0
H  H15  1  0.75315084  0.66672693  0.99757045  1  0.476422  0  0.313499  0.318829  0  0.946961  0
H  H16  1  0.89780063  0.11260371  0.50229509  1  0.464244  0  0.309407  0.310457  0  0.943478  0
H  H17  1  0.10219786  0.88739949  0.49770293  1  0.464217  0  0.309393  0.310486  0  0.943492  0
H  H18  1  0.84918710  0.94592901  0.44510382  1  0.497309  0  0.29962  0.305392  0  1.005227  0
H  H19  1  0.15081221  0.05407325  0.55489412  1  0.497277  0  0.299625  0.305386  0  1.005289  0
H  H20  1  0.40920850  0.94178142  0.56622935  1  0.450612  0  0.297489  0.295734  0  0.977622  0
H  H21  1  0.59078841  0.05821884  0.43377108  1  0.450722  0  0.297494  0.295765  0  0.977598  0
H  H22  1  0.50247296  0.83622865  0.50645229  1  0.48908  0  0.29657  0.304193  0  0.994553  0
H  H23  1  0.49752934  0.16377364  0.49355063  1  0.489829  0  0.296541  0.304195  0  0.994532  0
H  H24  1  0.47392598  0.64421178  0.37003206  1  0.12708  0  0.113279  0.113866  0  1.073998  0
H  H25  1  0.52607873  0.35579253  0.62996694  1  0.127122  0  0.1133  0.113907  0  1.074003  0
H  H26  1  0.27486303  0.69174466  0.43074190  1  0.076999  0  0.103385  0.105184  0  1.023751  0
H  H27  1  0.72514551  0.30825874  0.56926200  1  0.076644  0  0.103364  0.105196  0  1.023759  0
H  H28  1  0.00394592  0.46311026  0.10550175  1  0.121381  0  0.118038  0.133759  0  1.067089  0
H  H29  1  0.99605823  0.53690165  0.89450213  1  0.121308  0  0.118045  0.133864  0  1.067012  0
H  H30  1  0.61763782  0.85798758  0.07121612  1  0.105092  0  0.109675  0.115027  0  1.001673  0
H  H31  1  0.38235885  0.14201653  0.92878103  1  0.10507  0  0.1097  0.115069  0  1.001621  0
H  H32  1  0.61278110  0.07764831  0.06566831  1  0.089224  0  0.103769  0.110803  0  1.018901  0
H  H33  1  0.38721675  0.92235678  0.93433010  1  0.089326  0  0.103729  0.110706  0  1.018969  0
H  H34  1  0.83227651  0.24347660  0.40997680  1  0.072514  0  0.105122  0.113602  0  1.050863  0
H  H35  1  0.16771592  0.75652641  0.59002412  1  0.072317  0  0.105145  0.113647  0  1.050837  0
H  H36  1  0.96466607  0.01443932  0.72065054  1  0.112734  0  0.102544  0.109541  0  1.013213  0
H  H37  1  0.03532897  0.98555128  0.27935395  1  0.11286  0  0.102562  0.109576  0  1.01319  0
H  H38  1  0.95588435  0.20077528  0.87746664  1  0.053376  0  0.095007  0.094792  0  1.042011  0
H  H39  1  0.04411616  0.79921255  0.12254116  1  0.05367  0  0.094962  0.094727  0  1.041992  0
H  H40  1  0.51718182  0.11330891  0.74089242  1  0.08667  0  0.104384  0.121802  0  1.026459  0
H  H41  1  0.48281871  0.88668946  0.25911475  1  0.086671  0  0.104351  0.121723  0  1.02643  0
H  H42  1  0.12608003  0.32199443  0.27113610  1  0.093169  0  0.102271  0.072248  0  1.028638  0
H  H43  1  0.87391674  0.67799441  0.72885607  1  0.093002  0  0.102261  0.072237  0  1.028583  0
H  H44  1  0.93029643  0.16909817  0.11882287  1  0.081225  0  0.104553  0.113014  0  1.023855  0
H  H45  1  0.06970153  0.83089167  0.88116913  1  0.080976  0  0.104572  0.113016  0  1.023798  0
H  H46  1  0.22179580  0.96415956  0.00422380  1  0.076471  0  0.102529  0.105897  0  1.04611  0
H  H47  1  0.77819919  0.03582537  0.99577191  1  0.076609  0  0.102509  0.105896  0  1.046089  0
H  H48  1  0.40511422  0.13006075  0.15851700  1  0.057403  0  0.104993  0.07419  0  1.002357  0
H  H49  1  0.59488356  0.86992814  0.84147397  1  0.057431  0  0.104978  0.074188  0  1.002338  0
C  C50  1  0.47258790  0.50799864  0.17216665  1  1.521266  0  0.241787  0.673951  0  4.089221  0
C  C51  1  0.52741342  0.49200366  0.82783247  1  1.521268  0  0.241736  0.673967  0  4.089285  0
C  C52  1  0.35142983  0.52710175  0.20490801  1  -0.009113  0  -0.008295  -0.137533  0  3.913017  0
C  C53  1  0.64857332  0.47289964  0.79509197  1  -0.008697  0  -0.008345  -0.137673  0  3.913234  0
C  C54  1  0.37017131  0.60404127  0.31310125  1  -0.020017  0  -0.074578  -0.072978  0  3.966629  0
C  C55  1  0.62983220  0.39596203  0.68689935  1  -0.019957  0  -0.074581  -0.072959  0  3.966757  0
C  C56  1  0.26004824  0.63111284  0.34703315  1  -0.01409  0  -0.094159  -0.127686  0  3.990431  0
C  C57  1  0.73995646  0.36889144  0.65296870  1  -0.013782  0  -0.094114  -0.127727  0  3.990453  0
C  C58  1  0.12713595  0.58110643  0.27099800  1  0.006615  0  -0.010158  -0.011177  0  4.001823  0
C  C59  1  0.87286773  0.41889781  0.72900577  1  0.00683  0  -0.010202  -0.011078  0  4.001729  0
C  C60  1  0.00583831  0.60017344  0.30461312  1  1.504866  0  0.228791  0.628839  0  4.142156  0
C  C61  1  0.99416849  0.39983662  0.69539155  1  1.505266  0  0.228841  0.628852  0  4.142232  0
C  C62  1  0.10695411  0.50556322  0.16351643  1  -0.047382  0  -0.080536  -0.195877  0  3.892454  0
C  C63  1  0.89304995  0.49444296  0.83648582  1  -0.047407  0  -0.080543  -0.195989  0  3.892589  0
C  C64  1  0.21722776  0.47587992  0.12893704  1  0.422801  0  0.111349  0.296601  0  4.005615  0
C  C65  1  0.78277374  0.52412334  0.87106310  1  0.422375  0  0.111398  0.296678  0  4.005713  0
C  C66  1  0.73673342  0.79510224  0.23814840  1  1.568344  0  0.233114  0.663693  0  4.1207  0
C  C67  1  0.26326571  0.20489906  0.76184994  1  1.568231  0  0.233096  0.663763  0  4.120668  0
C  C68  1  0.72879257  0.92710744  0.24208200  1  -0.011739  0  -0.027566  -0.171005  0  3.901726  0
C  C69  1  0.27120456  0.07289383  0.75791445  1  -0.011354  0  -0.027589  -0.171085  0  3.901988  0
C  C70  1  0.66547411  0.94419741  0.14457940  1  -0.006969  0  -0.081157  -0.065448  0  3.99773  0
C  C71  1  0.33452375  0.05580769  0.85541829  1  -0.007358  0  -0.081186  -0.065502  0  3.997639  0
C  C72  1  0.66241238  0.06485917  0.14101243  1  -0.059997  0  -0.106531  -0.155278  0  4.03294  0
C  C73  1  0.33758593  0.93514306  0.85898599  1  -0.059959  0  -0.106465  -0.155097  0  4.03276  0
C  C74  1  0.72781286  0.17379698  0.23752492  1  -0.092869  0  -0.022073  -0.029184  0  4.024366  0
C  C75  1  0.27218600  0.82620813  0.76247443  1  -0.093015  0  -0.022158  -0.029305  0  4.024436  0
C  C76  1  0.73909544  0.30609239  0.23679093  1  1.543279  0  0.234756  0.64472  0  4.128253  0
C  C77  1  0.26089939  0.69391263  0.76320750  1  1.543454  0  0.23469  0.644671  0  4.128221  0
C  C78  1  0.78536952  0.15926690  0.33503170  1  -0.003334  0  -0.099543  -0.2186  0  3.939241  0
C  C79  1  0.21462678  0.84073529  0.66496555  1  -0.002947  0  -0.099513  -0.218571  0  3.939137  0
C  C80  1  0.78475960  0.03732634  0.34110791  1  0.443919  0  0.114056  0.307344  0  4.046986  0
C  C81  1  0.21523871  0.96267590  0.65888980  1  0.443886  0  0.114032  0.307344  0  4.047021  0
C  C82  1  0.76223004  0.84098029  0.56116210  1  1.484183  0  0.188406  0.577207  0  4.211247  0
C  C83  1  0.23776789  0.15902001  0.43883714  1  1.483735  0  0.18845  0.577289  0  4.211009  0
C  C84  1  0.74725080  0.95621766  0.64398964  1  -0.006791  0  -0.03072  -0.158773  0  3.932055  0
C  C85  1  0.25274619  0.04377780  0.35601305  1  -0.006474  0  -0.030644  -0.158615  0  3.932143  0
C  C86  1  0.86729100  0.03851887  0.72561938  1  -0.066487  0  -0.085865  -0.069506  0  3.996793  0
C  C87  1  0.13270499  0.96147656  0.27438237  1  -0.066844  0  -0.085909  -0.069682  0  3.996998  0
C  C88  1  0.86259256  0.14257257  0.81179237  1  0.015823  0  -0.10902  -0.144759  0  4.032276  0
C  C89  1  0.13740862  0.85742391  0.18821370  1  0.015818  0  -0.108998  -0.144623  0  4.032427  0
C  C90  1  0.73466681  0.16802156  0.81686038  1  -0.077249  0  -0.017239  -0.003672  0  4.013339  0
C  C91  1  0.26533282  0.83197203  0.18314381  1  -0.077555  0  -0.01722  -0.003765  0  4.013553  0
C  C92  1  0.72410149  0.27329387  0.91190012  1  1.520249  0  0.191985  0.567654  0  4.214551  0
C  C93  1  0.27590200  0.72670940  0.08810406  1  1.520373  0  0.192001  0.567769  0  4.214603  0
C  C94  1  0.61486112  0.09164576  0.73474381  1  0.009873  0  -0.095458  -0.212975  0  3.897203  0
C  C95  1  0.38513703  0.90835064  0.26526300  1  0.009988  0  -0.095439  -0.212865  0  3.897178  0
C  C96  1  0.61701425  0.98303224  0.64750576  1  0.432845  0  0.112719  0.306136  0  4.048427  0
C  C97  1  0.38298474  0.01696325  0.35249811  1  0.432551  0  0.112635  0.306031  0  4.04863  0
C  C98  1  0.14405934  0.24266719  0.20880813  1  0.496329  0  0.031687  0.093621  0  4.001213  0
C  C99  1  0.85593825  0.75732072  0.79118397  1  0.496541  0  0.03171  0.093606  0  4.001205  0
C  C100  1  0.03331669  0.15489259  0.12303299  1  -0.052945  0  -0.085222  -0.165275  0  3.909523  0
C  C101  1  0.96668218  0.84509153  0.87695832  1  -0.052553  0  -0.085345  -0.165312  0  3.909472  0
C  C102  1  0.05667364  0.04976435  0.04538433  1  -0.056784  0  0.005906  0.094842  0  3.972393  0
C  C103  1  0.94332192  0.95022348  0.95461016  1  -0.031647  0  0.005903  0.094946  0  3.972315  0
C  C104  1  0.19424680  0.04280695  0.05987743  1  -0.050479  0  -0.087155  -0.175344  0  3.954494  0
C  C105  1  0.80574986  0.95717614  0.94011526  1  -0.050452  0  -0.08703  -0.175258  0  3.95425  0
C  C106  1  0.29819599  0.13656408  0.14728355  1  0.53015  0  0.033563  0.089483  0  4.007295  0
C  C107  1  0.70180077  0.86342474  0.85271077  1  0.530176  0  0.033535  0.089455  0  4.007228  0
N  N108  1  0.18866027  0.40085933  0.01860617  1  -1.218039  0  -0.637706  -0.683259  0  3.370869  0
N  N109  1  0.81134041  0.59914487  0.98139405  1  -1.218178  0  -0.637705  -0.683201  0  3.370922  0
N  N110  1  0.83368813  0.03234901  0.44185002  1  -1.272803  0  -0.586198  -0.603444  0  3.336619  0
N  N111  1  0.16630854  0.96765511  0.55814713  1  -1.272884  0  -0.586141  -0.603453  0  3.336587  0
N  N112  1  0.49606072  0.90608838  0.57275351  1  -1.259692  0  -0.594784  -0.613256  0  3.365687  0
N  N113  1  0.50393764  0.09390902  0.42724932  1  -1.260611  0  -0.594754  -0.613281  0  3.365545  0
N  N114  1  0.27575740  0.23626451  0.22229534  1  -1.200684  0  -0.337983  -0.295928  0  3.317883  0
N  N115  1  0.72423983  0.76372149  0.77769542  1  -1.200943  0  -0.337946  -0.295937  0  3.317827  0
O  O116  1  0.45815027  0.46028438  0.07050796  1  -1.181764  0  -0.407095  -0.685795  0  2.352649  0
O  O117  1  0.54185325  0.53971894  0.92949193  1  -1.181699  0  -0.407056  -0.685849  0  2.352727  0
O  O118  1  0.59255954  0.53968667  0.24240642  1  -1.210638  0  -0.404332  -0.701964  0  2.409572  0
O  O119  1  0.40744325  0.46031280  0.75759294  1  -1.210611  0  -0.404289  -0.701931  0  2.409646  0
O  O120  1  0.88683829  0.56514901  0.23284801  1  -1.212996  0  -0.40833  -0.711521  0  2.464051  0
O  O121  1  0.11316393  0.43485806  0.76715623  1  -1.212829  0  -0.408332  -0.711547  0  2.464158  0
O  O122  1  0.02110182  0.64647140  0.40614667  1  -1.184778  0  -0.36653  -0.640663  0  2.248171  0
O  O123  1  0.97890341  0.35353574  0.59385827  1  -1.185541  0  -0.366564  -0.640712  0  2.248253  0
O  O124  1  0.70520042  0.70402717  0.14560960  1  -1.205682  0  -0.387174  -0.650484  0  2.323538  0
O  O125  1  0.29479725  0.29597696  0.85438850  1  -1.205634  0  -0.387163  -0.650499  0  2.323435  0
O  O126  1  0.77739273  0.77975049  0.32877492  1  -1.194557  0  -0.40141  -0.676407  0  2.343585  0
O  O127  1  0.22260595  0.22025366  0.67122341  1  -1.19451  0  -0.401406  -0.676449  0  2.343534  0
O  O128  1  0.69101740  0.31759825  0.14632226  1  -1.18232  0  -0.385683  -0.632766  0  2.289794  0
O  O129  1  0.30897843  0.68240679  0.85367640  1  -1.182197  0  -0.385641  -0.632686  0  2.289626  0
O  O130  1  0.79926578  0.40042272  0.32863194  1  -1.220698  0  -0.393807  -0.698044  0  2.323815  0
O  O131  1  0.20073087  0.59958138  0.67136736  1  -1.220899  0  -0.393746  -0.698015  0  2.3238  0
O  O132  1  0.88039522  0.82405037  0.55628805  1  -1.1776  0  -0.386228  -0.627671  0  2.203992  0
O  O133  1  0.11960225  0.17595277  0.44371259  1  -1.177287  0  -0.386258  -0.627702  0  2.20382  0
O  O134  1  0.65541715  0.75411777  0.49236135  1  -1.201678  0  -0.395696  -0.640736  0  2.250117  0
O  O135  1  0.34457860  0.24588154  0.50763497  1  -1.201624  0  -0.395706  -0.640776  0  2.250129  0
O  O136  1  0.60629757  0.29598015  0.91261356  1  -1.172375  0  -0.381428  -0.616153  0  2.23622  0
O  O137  1  0.39370729  0.70402505  0.08739219  1  -1.172089  0  -0.381424  -0.616188  0  2.236194  0
O  O138  1  0.83233442  0.34124089  0.99221963  1  -1.199641  0  -0.377745  -0.644087  0  2.246526  0
O  O139  1  0.16767111  0.65876246  0.00778143  1  -1.199487  0  -0.377726  -0.644145  0  2.246657  0
O  O140  1  0.91291021  0.57628538  0.55860996  1  -1.260742  0  -0.620737  -0.831524  0  2.120965  0
O  O141  1  0.08708553  0.42371393  0.44138707  1  -1.260673  0  -0.620658  -0.831469  0  2.120983  0
O  O142  1  0.61821490  0.49041646  0.44797685  1  -1.198369  0  -0.588355  -0.800353  0  2.052926  0
O  O143  1  0.38178055  0.50958662  0.55202476  1  -1.198547  0  -0.588318  -0.800312  0  2.052889  0
