# generated using pymatgen
data_Nd2H3C4NO13
_symmetry_space_group_name_H-M   'P 1'
_cell_length_a   6.58733755
_cell_length_b   8.57294748
_cell_length_c   12.81841477
_cell_angle_alpha   107.58401773
_cell_angle_beta   87.04075041
_cell_angle_gamma   102.43388559
_symmetry_Int_Tables_number   1
_chemical_formula_structural   Nd2H3C4NO13
_chemical_formula_sum   'Nd4 H6 C8 N2 O26'
_cell_volume   673.81358598
_cell_formula_units_Z   2
loop_
 _symmetry_equiv_pos_site_id
 _symmetry_equiv_pos_as_xyz
  1  'x, y, z'
loop_
 _atom_site_type_symbol
 _atom_site_label
 _atom_site_symmetry_multiplicity
 _atom_site_fract_x
 _atom_site_fract_y
 _atom_site_fract_z
 _atom_site_occupancy
 _atom_site_pbe_bader_charge
 _atom_site_pbe_bader_spin_density
 _atom_site_pbe_cm5_charge
 _atom_site_pbe_ddec_charge
 _atom_site_pbe_ddec_spin_density
 _atom_site_pbe_ddec_sum_bond_order
 _atom_site_pbe_magmom
Nd  Nd0  1  0.76891097  0.68417623  0.08045631  1  2.229686  0  1.50328  2.079192  0  2.133322  0
Nd  Nd1  1  0.55267959  0.06577232  0.27192183  1  2.237701  0  1.493712  2.093721  0  2.126678  0
Nd  Nd2  1  0.23109569  0.31583593  0.91954551  1  2.229791  0  1.503233  2.079045  0  2.133435  0
Nd  Nd3  1  0.44733005  0.93422962  0.72807724  1  2.237729  0  1.493682  2.09376  0  2.126706  0
H  H4  1  0.81738716  0.83750541  0.31384634  1  0.607499  0  0.31059  0.42448  0  0.871069  0
H  H5  1  0.15033840  0.17521065  0.39477508  1  0.643043  0  0.341834  0.431265  0  0.852164  0
H  H6  1  0.18398488  0.28286310  0.31459252  1  0.646276  0  0.346573  0.440055  0  0.835645  0
H  H7  1  0.18260021  0.16246955  0.68615176  1  0.607521  0  0.310646  0.42451  0  0.871055  0
H  H8  1  0.84964228  0.82475917  0.60520650  1  0.643453  0  0.341836  0.431221  0  0.852213  0
H  H9  1  0.81599984  0.71711042  0.68539206  1  0.646348  0  0.346609  0.43999  0  0.835705  0
C  C10  1  0.94218075  0.06013514  0.04316053  1  1.605818  0  0.230789  0.528512  0  4.187632  0
C  C11  1  0.54043831  0.33640115  0.14157339  1  1.571763  0  0.229323  0.516218  0  4.183834  0
C  C12  1  0.73731599  0.41311052  0.21777675  1  1.62845  0  0.224702  0.52536  0  4.22459  0
C  C13  1  0.39063260  0.94108338  0.48170261  1  1.590367  0  0.217226  0.50308  0  4.236404  0
C  C14  1  0.05781973  0.93986349  0.95684660  1  1.585734  0  0.230831  0.528523  0  4.187695  0
C  C15  1  0.45955610  0.66360642  0.85843081  1  1.571622  0  0.229525  0.516546  0  4.183937  0
C  C16  1  0.26267679  0.58688702  0.78222634  1  1.628246  0  0.224811  0.525447  0  4.224595  0
C  C17  1  0.60938237  0.05892456  0.51829052  1  1.608181  0  0.217346  0.503249  0  4.236636  0
N  N18  1  0.23906336  0.74509716  0.11617931  1  0.855762  0  0.110566  0.754789  0  4.40062  0
N  N19  1  0.76093966  0.25489874  0.88382181  1  0.855983  0  0.110609  0.75469  0  4.400892  0
O  O20  1  0.79983546  0.99171869  0.09594819  1  -1.192838  0  -0.376042  -0.657589  0  2.388857  0
O  O21  1  0.99717362  0.21465812  0.05428323  1  -1.167491  0  -0.357687  -0.590215  0  2.292467  0
O  O22  1  0.44084118  0.19301611  0.13932043  1  -1.17118  0  -0.344614  -0.577926  0  2.282668  0
O  O23  1  0.49518130  0.42526909  0.08490009  1  -1.203033  0  -0.400295  -0.698852  0  2.39344  0
O  O24  1  0.76836342  0.33341073  0.28219479  1  -1.180024  0  -0.395102  -0.612809  0  2.233128  0
O  O25  1  0.84911811  0.54741443  0.20929025  1  -1.171933  0  -0.373106  -0.574958  0  2.306835  0
O  O26  1  0.31838255  0.93637095  0.39097314  1  -1.183677  0  -0.381703  -0.60096  0  2.264719  0
O  O27  1  0.30291714  0.86092829  0.54588846  1  -1.181175  0  -0.387912  -0.59905  0  2.231509  0
O  O28  1  0.13648065  0.85315337  0.16509717  1  -0.524413  0  -0.155541  -0.448167  0  2.090796  0
O  O29  1  0.14707261  0.60228277  0.06002432  1  -0.547285  0  -0.180021  -0.483625  0  2.201092  0
O  O30  1  0.43527944  0.78544245  0.12477801  1  -0.572646  0  -0.257096  -0.526275  0  2.269083  0
O  O31  1  0.73611054  0.85668370  0.25966940  1  -1.26734  0  -0.805487  -1.094144  0  1.973812  0
O  O32  1  0.25456215  0.22297694  0.34994147  1  -1.252421  0  -0.593968  -0.832065  0  1.953416  0
O  O33  1  0.20016858  0.00828609  0.90405773  1  -1.192237  0  -0.376031  -0.65759  0  2.38863  0
O  O34  1  0.00283159  0.78534534  0.94572164  1  -1.167465  0  -0.357709  -0.590207  0  2.292828  0
O  O35  1  0.55915564  0.80700400  0.86068534  1  -1.171346  0  -0.344746  -0.578204  0  2.282539  0
O  O36  1  0.50480442  0.57474878  0.91510147  1  -1.203049  0  -0.400358  -0.698924  0  2.393895  0
O  O37  1  0.23162932  0.66660429  0.71780147  1  -1.179546  0  -0.395202  -0.612964  0  2.23272  0
O  O38  1  0.15087592  0.45260063  0.79070990  1  -1.171927  0  -0.373127  -0.574928  0  2.307282  0
O  O39  1  0.68163474  0.06362703  0.60902901  1  -1.183706  0  -0.381863  -0.601164  0  2.264373  0
O  O40  1  0.69708432  0.13907275  0.45411520  1  -1.181377  0  -0.387835  -0.598986  0  2.232157  0
O  O41  1  0.86351493  0.14684641  0.83489695  1  -0.524471  0  -0.155527  -0.448044  0  2.090778  0
O  O42  1  0.85292646  0.39769701  0.93998159  1  -0.547407  0  -0.180037  -0.483612  0  2.2013  0
O  O43  1  0.56473089  0.21455696  0.87522136  1  -0.572559  0  -0.257126  -0.52627  0  2.269104  0
O  O44  1  0.26390852  0.14332426  0.74033149  1  -1.267511  0  -0.805527  -1.09416  0  1.973819  0
O  O45  1  0.74543557  0.77703182  0.65006448  1  -1.252918  0  -0.594059  -0.831963  0  1.953556  0
