# generated using pymatgen
data_CdH18C14(BrN)2
_symmetry_space_group_name_H-M   'P 1'
_cell_length_a   3.95700912
_cell_length_b   14.32091377
_cell_length_c   14.32080695
_cell_angle_alpha   89.99998390
_cell_angle_beta   90.00002003
_cell_angle_gamma   89.99833652
_symmetry_Int_Tables_number   1
_chemical_formula_structural   CdH18C14(BrN)2
_chemical_formula_sum   'Cd2 H36 C28 Br4 N4'
_cell_volume   811.53129209
_cell_formula_units_Z   2
loop_
 _symmetry_equiv_pos_site_id
 _symmetry_equiv_pos_as_xyz
  1  'x, y, z'
loop_
 _atom_site_type_symbol
 _atom_site_label
 _atom_site_symmetry_multiplicity
 _atom_site_fract_x
 _atom_site_fract_y
 _atom_site_fract_z
 _atom_site_occupancy
 _atom_site_hle17_bader_spin_density
 _atom_site_hle17_ddec_charge
 _atom_site_hle17_ddec_spin_density
 _atom_site_hle17_ddec_sum_bond_order
 _atom_site_hle17_magmom
 _atom_site_hse06_10hf_bader_spin_density
 _atom_site_hse06_10hf_ddec_charge
 _atom_site_hse06_10hf_ddec_spin_density
 _atom_site_hse06_10hf_ddec_sum_bond_order
 _atom_site_hse06_10hf_magmom
 _atom_site_hse06_bader_spin_density
 _atom_site_hse06_ddec_charge
 _atom_site_hse06_ddec_spin_density
 _atom_site_hse06_ddec_sum_bond_order
 _atom_site_hse06_magmom
 _atom_site_pbe_bader_spin_density
 _atom_site_pbe_cm5_charge
 _atom_site_pbe_ddec_charge
 _atom_site_pbe_ddec_spin_density
 _atom_site_pbe_ddec_sum_bond_order
 _atom_site_pbe_magmom
Cd  Cd0  1  0.49999953  0.49999381  0.99999807  1  0  0.850553  0  2.010078  0  0  0.682009  0  2.459926  0  0  0.730711  0  2.42286  0  0  0.546486  0.647867  0  2.485327  0
Cd  Cd1  1  0.49999910  0.99999899  0.50000034  1  0  0.850591  0  2.010022  0  0  0.682023  0  2.45986  0  0  0.730727  0  2.422794  0  0  0.546476  0.647881  0  2.485262  0
H  H2  1  0.70294886  0.52676092  0.21460378  1  0  0.072288  0  0.978784  0  0  0.078173  0  1.053136  0  0  0.080994  0  1.050352  0  0  0.095602  0.076049  0  1.055243  0
H  H3  1  0.70298232  0.47322934  0.78538866  1  0  0.072317  0  0.978876  0  0  0.078291  0  1.053116  0  0  0.081119  0  1.050336  0  0  0.095635  0.076168  0  1.055224  0
H  H4  1  0.29706739  0.21461210  0.47325474  1  0  0.07235  0  0.979036  0  0  0.078269  0  1.053314  0  0  0.081093  0  1.050525  0  0  0.095652  0.076149  0  1.055426  0
H  H5  1  0.29708906  0.78538922  0.52675444  1  0  0.072312  0  0.979012  0  0  0.07817  0  1.053371  0  0  0.080992  0  1.050587  0  0  0.095601  0.076051  0  1.055483  0
H  H6  1  0.70293380  0.02675441  0.28538757  1  0  0.072331  0  0.979005  0  0  0.078261  0  1.053284  0  0  0.081081  0  1.050501  0  0  0.095631  0.076139  0  1.055395  0
H  H7  1  0.70297463  0.97324493  0.71461465  1  0  0.072402  0  0.978905  0  0  0.078299  0  1.053209  0  0  0.081118  0  1.050425  0  0  0.09566  0.076175  0  1.055318  0
H  H8  1  0.29705184  0.71461797  0.02673933  1  0  0.072315  0  0.979119  0  0  0.078267  0  1.053362  0  0  0.081088  0  1.050578  0  0  0.095667  0.07615  0  1.055479  0
H  H9  1  0.29708186  0.28537637  0.97324960  1  0  0.072339  0  0.979097  0  0  0.078269  0  1.053351  0  0  0.081094  0  1.050562  0  0  0.095637  0.076145  0  1.055458  0
H  H10  1  0.49997585  0.80762861  0.30759500  1  0  0.103779  0  0.986811  0  0  0.113854  0  1.052231  0  0  0.116959  0  1.049614  0  0  0.08467  0.111424  0  1.054415  0
H  H11  1  0.49998709  0.19237452  0.69239254  1  0  0.103668  0  0.986817  0  0  0.113767  0  1.052217  0  0  0.116871  0  1.049601  0  0  0.084674  0.111345  0  1.05441  0
H  H12  1  0.49999352  0.30762072  0.19239975  1  0  0.10389  0  0.986775  0  0  0.113969  0  1.052158  0  0  0.117074  0  1.04954  0  0  0.084737  0.111543  0  1.054347  0
H  H13  1  0.50003260  0.69238938  0.80761712  1  0  0.10378  0  0.98674  0  0  0.113879  0  1.052128  0  0  0.116981  0  1.049514  0  0  0.084709  0.111456  0  1.054319  0
H  H14  1  0.88727401  0.69748597  0.40095500  1  0  0.112054  0  0.965709  0  0  0.129459  0  1.034887  0  0  0.131129  0  1.034233  0  0  0.084818  0.128176  0  1.035429  0
H  H15  1  0.88729922  0.30251254  0.59903188  1  0  0.112133  0  0.965551  0  0  0.129464  0  1.03483  0  0  0.131133  0  1.034179  0  0  0.08483  0.12818  0  1.035373  0
H  H16  1  0.11267361  0.40096552  0.30253458  1  0  0.112203  0  0.965619  0  0  0.129556  0  1.034883  0  0  0.131226  0  1.034228  0  0  0.08485  0.128274  0  1.035422  0
H  H17  1  0.11270936  0.59904501  0.69748296  1  0  0.112088  0  0.965659  0  0  0.129477  0  1.034885  0  0  0.131146  0  1.034233  0  0  0.084816  0.128192  0  1.035429  0
H  H18  1  0.88728648  0.19747811  0.09903702  1  0  0.112116  0  0.96565  0  0  0.129512  0  1.034856  0  0  0.131181  0  1.034203  0  0  0.084814  0.128229  0  1.035397  0
H  H19  1  0.88733224  0.80252459  0.90096871  1  0  0.112088  0  0.965646  0  0  0.129468  0  1.034864  0  0  0.131136  0  1.034215  0  0  0.084792  0.128186  0  1.035406  0
H  H20  1  0.11265326  0.90097134  0.19745733  1  0  0.112152  0  0.96554  0  0  0.129489  0  1.034824  0  0  0.131158  0  1.034171  0  0  0.084846  0.12821  0  1.035364  0
H  H21  1  0.11267917  0.09903290  0.80252949  1  0  0.112208  0  0.965626  0  0  0.129561  0  1.034883  0  0  0.131231  0  1.034229  0  0  0.08483  0.128279  0  1.035424  0
H  H22  1  0.90274886  0.57671498  0.36911882  1  0  0.10196  0  0.954554  0  0  0.125065  0  1.012825  0  0  0.126366  0  1.012779  0  0  0.089146  0.124092  0  1.012883  0
H  H23  1  0.90275430  0.42328200  0.63087225  1  0  0.101846  0  0.954511  0  0  0.124931  0  1.012834  0  0  0.126233  0  1.012787  0  0  0.08909  0.123959  0  1.012892  0
H  H24  1  0.09720403  0.36913171  0.42330641  1  0  0.101946  0  0.954571  0  0  0.125133  0  1.012754  0  0  0.126436  0  1.012708  0  0  0.089086  0.124159  0  1.012811  0
H  H25  1  0.09723890  0.63087965  0.57670974  1  0  0.101877  0  0.954572  0  0  0.125026  0  1.012813  0  0  0.126325  0  1.01277  0  0  0.089103  0.124053  0  1.01287  0
H  H26  1  0.90275380  0.07670921  0.13087603  1  0  0.10187  0  0.954568  0  0  0.125018  0  1.01282  0  0  0.126318  0  1.012777  0  0  0.089101  0.124046  0  1.012878  0
H  H27  1  0.90279233  0.92329475  0.86913249  1  0  0.101889  0  0.954538  0  0  0.12505  0  1.012751  0  0  0.126354  0  1.012703  0  0  0.089082  0.124077  0  1.012809  0
H  H28  1  0.09718856  0.86914035  0.07668620  1  0  0.101916  0  0.954534  0  0  0.125021  0  1.012801  0  0  0.126328  0  1.012749  0  0  0.089004  0.124047  0  1.012858  0
H  H29  1  0.09720889  0.13086681  0.92330061  1  0  0.101958  0  0.954559  0  0  0.125143  0  1.01273  0  0  0.126447  0  1.012683  0  0  0.089104  0.12417  0  1.012788  0
H  H30  1  0.53093533  0.62505701  0.41904266  1  0  0.102018  0  0.950807  0  0  0.125121  0  1.011398  0  0  0.125633  0  1.012077  0  0  0.089329  0.124724  0  1.01091  0
H  H31  1  0.53095064  0.37494585  0.58094768  1  0  0.102051  0  0.950828  0  0  0.125161  0  1.011403  0  0  0.125678  0  1.012078  0  0  0.089337  0.124763  0  1.010915  0
H  H32  1  0.46900248  0.41905785  0.37496626  1  0  0.102247  0  0.951022  0  0  0.125303  0  1.011647  0  0  0.125822  0  1.012321  0  0  0.089341  0.124903  0  1.011159  0
H  H33  1  0.46903490  0.58094693  0.62504782  1  0  0.102149  0  0.950886  0  0  0.125264  0  1.011451  0  0  0.125778  0  1.012128  0  0  0.089382  0.124865  0  1.010963  0
H  H34  1  0.53096041  0.12504846  0.08095215  1  0  0.102121  0  0.950946  0  0  0.125239  0  1.011506  0  0  0.125755  0  1.012183  0  0  0.089377  0.124841  0  1.011018  0
H  H35  1  0.53098622  0.87495580  0.91905216  1  0  0.102217  0  0.950977  0  0  0.125306  0  1.01156  0  0  0.125824  0  1.012236  0  0  0.089366  0.124908  0  1.011071  0
H  H36  1  0.46897697  0.91906369  0.12502636  1  0  0.102355  0  0.951015  0  0  0.125365  0  1.011646  0  0  0.125884  0  1.012322  0  0  0.089404  0.124967  0  1.011158  0
H  H37  1  0.46900229  0.08093131  0.87496257  1  0  0.102282  0  0.950946  0  0  0.125343  0  1.011558  0  0  0.125863  0  1.012231  0  0  0.089394  0.124944  0  1.011071  0
C  C38  1  0.61093131  0.59778052  0.20355272  1  0  0.051733  0  3.697881  0  0  0.00986  0  3.950384  0  0  0.015329  0  3.969677  0  0  0.030511  0.006412  0  3.937264  0
C  C39  1  0.61097451  0.40221121  0.79644182  1  0  0.051664  0  3.69831  0  0  0.009765  0  3.950732  0  0  0.015218  0  3.970042  0  0  0.030427  0.006317  0  3.937615  0
C  C40  1  0.38906920  0.20356076  0.40223849  1  0  0.051541  0  3.698412  0  0  0.009589  0  3.950944  0  0  0.015061  0  3.970221  0  0  0.030333  0.006133  0  3.937834  0
C  C41  1  0.38910754  0.79643980  0.59776999  1  0  0.051624  0  3.698239  0  0  0.00975  0  3.950737  0  0  0.015219  0  3.970025  0  0  0.030455  0.006293  0  3.937628  0
C  C42  1  0.61093396  0.09777051  0.29644420  1  0  0.051589  0  3.698115  0  0  0.009644  0  3.950612  0  0  0.015118  0  3.96989  0  0  0.030439  0.006192  0  3.937498  0
C  C43  1  0.61097691  0.90222610  0.70356151  1  0  0.051479  0  3.698256  0  0  0.009649  0  3.950759  0  0  0.015119  0  3.970043  0  0  0.030396  0.0062  0  3.937643  0
C  C44  1  0.38906386  0.70356591  0.09775209  1  0  0.051572  0  3.698424  0  0  0.0096  0  3.950964  0  0  0.015073  0  3.970245  0  0  0.030326  0.006136  0  3.937862  0
C  C45  1  0.38908508  0.29642906  0.90223824  1  0  0.051725  0  3.698371  0  0  0.009805  0  3.950877  0  0  0.01528  0  3.970151  0  0  0.030401  0.006357  0  3.93776  0
C  C46  1  0.61638920  0.66403394  0.27510245  1  0  0.103125  0  3.75634  0  0  0.13612  0  3.99199  0  0  0.132401  0  4.018488  0  0  -0.006638  0.138292  0  3.974115  0
C  C47  1  0.61642637  0.33596054  0.72488860  1  0  0.102984  0  3.756661  0  0  0.136011  0  3.992268  0  0  0.132294  0  4.018767  0  0  -0.006674  0.138183  0  3.974398  0
C  C48  1  0.38358159  0.27511279  0.33598593  1  0  0.103242  0  3.756144  0  0  0.136328  0  3.991637  0  0  0.132606  0  4.018154  0  0  -0.006506  0.138499  0  3.973764  0
C  C49  1  0.38362475  0.72488921  0.66402814  1  0  0.103079  0  3.756319  0  0  0.136223  0  3.99178  0  0  0.132507  0  4.01828  0  0  -0.006542  0.138395  0  3.973909  0
C  C50  1  0.61639933  0.16402605  0.22489375  1  0  0.103192  0  3.75623  0  0  0.136258  0  3.991775  0  0  0.132538  0  4.018282  0  0  -0.006582  0.138431  0  3.973901  0
C  C51  1  0.61644910  0.83597681  0.77511265  1  0  0.10315  0  3.756366  0  0  0.136151  0  3.99199  0  0  0.132436  0  4.01849  0  0  -0.006614  0.138322  0  3.974123  0
C  C52  1  0.38356624  0.77511722  0.16400812  1  0  0.103115  0  3.756222  0  0  0.136258  0  3.9916  0  0  0.132537  0  4.018117  0  0  -0.006532  0.138429  0  3.973729  0
C  C53  1  0.38360472  0.22487989  0.83598081  1  0  0.1029  0  3.756102  0  0  0.136015  0  3.991612  0  0  0.132293  0  4.018126  0  0  -0.006647  0.138189  0  3.97374  0
C  C54  1  0.49997349  0.75377102  0.25375377  1  0  -0.116694  0  3.630638  0  0  -0.147583  0  3.864614  0  0  -0.147172  0  3.884115  0  0  -0.075181  -0.147512  0  3.851492  0
C  C55  1  0.50000209  0.24622722  0.74623726  1  0  -0.116442  0  3.630689  0  0  -0.14737  0  3.864702  0  0  -0.146959  0  3.884201  0  0  -0.075149  -0.147312  0  3.851582  0
C  C56  1  0.49999376  0.25376661  0.24624379  1  0  -0.116836  0  3.630769  0  0  -0.147726  0  3.86472  0  0  -0.147318  0  3.884223  0  0  -0.075273  -0.147663  0  3.851605  0
C  C57  1  0.50003489  0.74624140  0.75376819  1  0  -0.116709  0  3.630742  0  0  -0.147648  0  3.864767  0  0  -0.147241  0  3.88427  0  0  -0.075276  -0.147587  0  3.851651  0
C  C58  1  0.74221283  0.63926543  0.37103490  1  0  -0.33426  0  3.7388  0  0  -0.413574  0  3.969319  0  0  -0.415661  0  3.980185  0  0  -0.239103  -0.411814  0  3.961885  0
C  C59  1  0.74222461  0.36073219  0.62895546  1  0  -0.334205  0  3.738644  0  0  -0.413452  0  3.969138  0  0  -0.415544  0  3.979995  0  0  -0.239058  -0.411693  0  3.961705  0
C  C60  1  0.25774433  0.37104922  0.36075826  1  0  -0.334644  0  3.738818  0  0  -0.413997  0  3.969314  0  0  -0.41609  0  3.98017  0  0  -0.239133  -0.412237  0  3.961881  0
C  C61  1  0.25777696  0.62895940  0.63925929  1  0  -0.334287  0  3.738835  0  0  -0.413698  0  3.969322  0  0  -0.415784  0  3.980185  0  0  -0.239132  -0.411939  0  3.961891  0
C  C62  1  0.74222282  0.13925966  0.12895922  1  0  -0.334341  0  3.738824  0  0  -0.41373  0  3.969287  0  0  -0.415819  0  3.980151  0  0  -0.239109  -0.411971  0  3.961854  0
C  C63  1  0.74227022  0.86074564  0.87105138  1  0  -0.334451  0  3.738818  0  0  -0.413802  0  3.969363  0  0  -0.415898  0  3.980224  0  0  -0.239098  -0.412043  0  3.961932  0
C  C64  1  0.25772895  0.87105646  0.13923366  1  0  -0.334627  0  3.738802  0  0  -0.413883  0  3.96936  0  0  -0.415978  0  3.980219  0  0  -0.239133  -0.412125  0  3.961925  0
C  C65  1  0.25774433  0.12894030  0.86075316  1  0  -0.334664  0  3.73862  0  0  -0.414046  0  3.969188  0  0  -0.416139  0  3.98004  0  0  -0.239188  -0.412289  0  3.961758  0
Br  Br66  1  0.00000750  0.40222502  0.09777935  1  0  -0.52201  0  1.114094  0  0  -0.461395  0  1.42839  0  0  -0.480352  0  1.405862  0  0  -0.235281  -0.447509  0  1.444199  0
Br  Br67  1  0.00000577  0.59776061  0.90221723  1  0  -0.521967  0  1.114147  0  0  -0.461379  0  1.428485  0  0  -0.480318  0  1.405921  0  0  -0.235288  -0.447496  0  1.444299  0
Br  Br68  1  0.00000307  0.09776952  0.59777775  1  0  -0.521993  0  1.114155  0  0  -0.461381  0  1.428451  0  0  -0.480336  0  1.405921  0  0  -0.235269  -0.447499  0  1.444265  0
Br  Br69  1  0.00001019  0.90222519  0.40222511  1  0  -0.521968  0  1.114048  0  0  -0.461344  0  1.42833  0  0  -0.480303  0  1.405813  0  0  -0.23526  -0.447457  0  1.44414  0
N  N70  1  0.50000305  0.61715126  0.11713160  1  0  -0.30806  0  3.352544  0  0  -0.226203  0  3.615458  0  0  -0.247057  0  3.640644  0  0  -0.334656  -0.21206  0  3.598042  0
N  N71  1  0.50004076  0.38283929  0.88285943  1  0  -0.308068  0  3.352741  0  0  -0.226334  0  3.615815  0  0  -0.247183  0  3.640987  0  0  -0.334647  -0.212191  0  3.598396  0
N  N72  1  0.50000583  0.11714472  0.38286111  1  0  -0.308112  0  3.352638  0  0  -0.22623  0  3.615506  0  0  -0.247079  0  3.640687  0  0  -0.334707  -0.212087  0  3.59809  0
N  N73  1  0.50004050  0.88285421  0.61714668  1  0  -0.308036  0  3.352958  0  0  -0.226231  0  3.615835  0  0  -0.247084  0  3.64102  0  0  -0.334691  -0.212085  0  3.59841  0
