# generated using pymatgen
data_CuH8C12N5
_symmetry_space_group_name_H-M   'P 1'
_cell_length_a   9.19198294
_cell_length_b   9.99932291
_cell_length_c   11.93706826
_cell_angle_alpha   109.63416773
_cell_angle_beta   89.99984653
_cell_angle_gamma   89.99993945
_symmetry_Int_Tables_number   1
_chemical_formula_structural   CuH8C12N5
_chemical_formula_sum   'Cu4 H32 C48 N20'
_cell_volume   1033.38597196
_cell_formula_units_Z   4
loop_
 _symmetry_equiv_pos_site_id
 _symmetry_equiv_pos_as_xyz
  1  'x, y, z'
loop_
 _atom_site_type_symbol
 _atom_site_label
 _atom_site_symmetry_multiplicity
 _atom_site_fract_x
 _atom_site_fract_y
 _atom_site_fract_z
 _atom_site_occupancy
 _atom_site_hle17_bader_spin_density
 _atom_site_hle17_ddec_charge
 _atom_site_hle17_ddec_spin_density
 _atom_site_hle17_ddec_sum_bond_order
 _atom_site_hle17_magmom
 _atom_site_hse06_10hf_bader_spin_density
 _atom_site_hse06_10hf_ddec_charge
 _atom_site_hse06_10hf_ddec_spin_density
 _atom_site_hse06_10hf_ddec_sum_bond_order
 _atom_site_hse06_10hf_magmom
 _atom_site_hse06_bader_spin_density
 _atom_site_hse06_ddec_charge
 _atom_site_hse06_ddec_spin_density
 _atom_site_hse06_ddec_sum_bond_order
 _atom_site_hse06_magmom
 _atom_site_pbe_bader_spin_density
 _atom_site_pbe_cm5_charge
 _atom_site_pbe_ddec_charge
 _atom_site_pbe_ddec_spin_density
 _atom_site_pbe_ddec_sum_bond_order
 _atom_site_pbe_magmom
Cu  Cu0  1  0.09391478  0.95401078  0.11601741  1  0  0.392928  0  2.034695  0  0  0.254276  0  2.544968  0  0  0.240811  0  2.509235  0  0  0.585423  0.270158  0  2.563815  0
Cu  Cu1  1  0.59391461  0.54599115  0.88398804  1  0  0.392858  0  2.034772  0  0  0.254224  0  2.545025  0  0  0.240853  0  2.509288  0  0  0.585388  0.270125  0  2.563865  0
Cu  Cu2  1  0.90608476  0.04599077  0.88398743  1  0  0.39296  0  2.034884  0  0  0.25431  0  2.545103  0  0  0.240853  0  2.509384  0  0  0.585437  0.270208  0  2.563792  0
Cu  Cu3  1  0.40608493  0.45401040  0.11601596  1  0  0.392855  0  2.03482  0  0  0.254274  0  2.545105  0  0  0.240827  0  2.509349  0  0  0.585434  0.27019  0  2.563793  0
H  H4  1  0.86639316  0.87244749  0.26376325  1  0  0.095252  0  0.984775  0  0  0.101505  0  1.056871  0  0  0.104686  0  1.055256  0  0  0.099986  0.098726  0  1.05919  0
H  H5  1  0.36639590  0.62755389  0.73623980  1  0  0.095218  0  0.984801  0  0  0.101457  0  1.056922  0  0  0.104644  0  1.055303  0  0  0.099959  0.098681  0  1.059241  0
H  H6  1  0.13360529  0.12755406  0.73624159  1  0  0.095277  0  0.984762  0  0  0.101537  0  1.05685  0  0  0.104723  0  1.055231  0  0  0.099978  0.098759  0  1.059166  0
H  H7  1  0.63360690  0.37244873  0.26376366  1  0  0.09525  0  0.984783  0  0  0.101494  0  1.056889  0  0  0.104676  0  1.055274  0  0  0.099984  0.098715  0  1.059203  0
H  H8  1  0.05993746  0.80751286  0.72509811  1  0  0.07221  0  0.951003  0  0  0.078035  0  1.022814  0  0  0.080926  0  1.020421  0  0  0.110335  0.075862  0  1.024583  0
H  H9  1  0.55994032  0.69248701  0.27490598  1  0  0.072292  0  0.95092  0  0  0.078064  0  1.022783  0  0  0.080985  0  1.020371  0  0  0.110352  0.075891  0  1.024553  0
H  H10  1  0.94006099  0.19249187  0.27490930  1  0  0.072159  0  0.950946  0  0  0.077964  0  1.0228  0  0  0.080874  0  1.020377  0  0  0.110299  0.075789  0  1.024579  0
H  H11  1  0.44006139  0.30751454  0.72509634  1  0  0.072283  0  0.950964  0  0  0.078054  0  1.022827  0  0  0.080972  0  1.020425  0  0  0.110339  0.075881  0  1.024605  0
H  H12  1  0.06109980  0.65829350  0.51218363  1  0  0.090719  0  0.991868  0  0  0.100482  0  1.057357  0  0  0.103036  0  1.057542  0  0  0.098241  0.09872  0  1.057339  0
H  H13  1  0.56110066  0.84170318  0.48782208  1  0  0.090768  0  0.991865  0  0  0.100458  0  1.057428  0  0  0.103015  0  1.057611  0  0  0.098244  0.098696  0  1.05741  0
H  H14  1  0.93890191  0.34170698  0.48782426  1  0  0.090722  0  0.991854  0  0  0.100411  0  1.057443  0  0  0.102961  0  1.057632  0  0  0.098209  0.09865  0  1.057424  0
H  H15  1  0.43890105  0.15829731  0.51218162  1  0  0.09076  0  0.991835  0  0  0.100453  0  1.057389  0  0  0.103004  0  1.057573  0  0  0.09823  0.098692  0  1.05737  0
H  H16  1  0.94156086  0.50711248  0.37144066  1  0  0.077151  0  0.977188  0  0  0.08925  0  1.041537  0  0  0.091872  0  1.039822  0  0  0.095163  0.087478  0  1.042517  0
H  H17  1  0.44156247  0.99288238  0.62855788  1  0  0.077132  0  0.977221  0  0  0.089267  0  1.041528  0  0  0.091891  0  1.039809  0  0  0.095171  0.087493  0  1.042515  0
H  H18  1  0.05843977  0.49288483  0.62856214  1  0  0.077114  0  0.9772  0  0  0.089219  0  1.04155  0  0  0.091842  0  1.03983  0  0  0.095163  0.087447  0  1.042533  0
H  H19  1  0.55843707  0.00711280  0.37143930  1  0  0.077184  0  0.977206  0  0  0.089239  0  1.041604  0  0  0.09186  0  1.039889  0  0  0.095166  0.087469  0  1.042582  0
H  H20  1  0.91810283  0.35065785  0.16209637  1  0  0.09357  0  0.958683  0  0  0.102144  0  1.022023  0  0  0.104169  0  1.022799  0  0  0.101016  0.100557  0  1.021935  0
H  H21  1  0.41810193  0.14934118  0.83790220  1  0  0.093608  0  0.958614  0  0  0.102184  0  1.021959  0  0  0.104214  0  1.022729  0  0  0.101035  0.100599  0  1.021871  0
H  H22  1  0.08189997  0.64934689  0.83790518  1  0  0.09361  0  0.958606  0  0  0.102126  0  1.022031  0  0  0.104168  0  1.022764  0  0  0.100997  0.100543  0  1.021941  0
H  H23  1  0.58189652  0.85065719  0.16209671  1  0  0.093594  0  0.958621  0  0  0.102165  0  1.021973  0  0  0.10419  0  1.02275  0  0  0.101013  0.10058  0  1.021885  0
H  H24  1  0.78121978  0.10036151  0.66396801  1  0  0.080757  0  0.952173  0  0  0.082699  0  1.026768  0  0  0.086196  0  1.023622  0  0  0.111901  0.079994  0  1.029117  0
H  H25  1  0.28121489  0.39963461  0.33603254  1  0  0.080648  0  0.952218  0  0  0.082664  0  1.026762  0  0  0.086161  0  1.023617  0  0  0.11187  0.079956  0  1.029117  0
H  H26  1  0.21878520  0.89964004  0.33603431  1  0  0.080725  0  0.952083  0  0  0.082669  0  1.026688  0  0  0.086163  0  1.023548  0  0  0.111854  0.079994  0  1.02902  0
H  H27  1  0.71878138  0.60035951  0.66396936  1  0  0.080706  0  0.952167  0  0  0.082642  0  1.026769  0  0  0.086136  0  1.02363  0  0  0.111873  0.079961  0  1.0291  0
H  H28  1  0.77030253  0.96284419  0.44693578  1  0  0.094321  0  0.975154  0  0  0.105628  0  1.038154  0  0  0.108092  0  1.038334  0  0  0.10089  0.103728  0  1.038566  0
H  H29  1  0.27029949  0.53715313  0.55306800  1  0  0.094433  0  0.975036  0  0  0.105737  0  1.038052  0  0  0.108166  0  1.038268  0  0  0.100935  0.103837  0  1.038465  0
H  H30  1  0.22969918  0.03715630  0.55306875  1  0  0.094367  0  0.975042  0  0  0.10565  0  1.038089  0  0  0.108097  0  1.038286  0  0  0.100898  0.103752  0  1.038502  0
H  H31  1  0.72969787  0.46284736  0.44693654  1  0  0.094306  0  0.975133  0  0  0.105611  0  1.038138  0  0  0.108076  0  1.038319  0  0  0.100885  0.103712  0  1.038551  0
H  H32  1  0.86874264  0.45393701  0.00357009  1  0  0.10221  0  0.973222  0  0  0.110001  0  1.037689  0  0  0.112327  0  1.037502  0  0  0.106904  0.107943  0  1.038749  0
H  H33  1  0.36873587  0.04606424  0.99643006  1  0  0.102138  0  0.973241  0  0  0.109926  0  1.037725  0  0  0.112256  0  1.037529  0  0  0.106885  0.107868  0  1.038783  0
H  H34  1  0.13126016  0.54606773  0.99643398  1  0  0.102207  0  0.97321  0  0  0.10998  0  1.037719  0  0  0.11232  0  1.037491  0  0  0.1069  0.107921  0  1.038773  0
H  H35  1  0.63125823  0.95393731  0.00356976  1  0  0.102232  0  0.973191  0  0  0.110022  0  1.037665  0  0  0.11235  0  1.037475  0  0  0.106915  0.107965  0  1.038724  0
C  C36  1  0.90948694  0.79281831  0.45966749  1  0  0.10283  0  3.770243  0  0  0.112432  0  3.996473  0  0  0.119184  0  4.018301  0  0  0.006679  0.107862  0  3.982104  0
C  C37  1  0.40948374  0.70717980  0.54033371  1  0  0.102914  0  3.770151  0  0  0.112502  0  3.996496  0  0  0.119254  0  4.018317  0  0  0.006757  0.107927  0  3.982124  0
C  C38  1  0.09051369  0.20718112  0.54033508  1  0  0.102902  0  3.770237  0  0  0.112447  0  3.996585  0  0  0.119196  0  4.018412  0  0  0.006748  0.107872  0  3.982237  0
C  C39  1  0.59051470  0.29281963  0.45966885  1  0  0.102865  0  3.770293  0  0  0.112484  0  3.996484  0  0  0.119234  0  4.018312  0  0  0.00671  0.107914  0  3.982139  0
C  C40  1  0.90141931  0.70133995  0.33387296  1  0  0.03635  0  3.793583  0  0  0.056484  0  4.020566  0  0  0.053734  0  4.044521  0  0  -0.011982  0.058405  0  4.003676  0
C  C41  1  0.40141992  0.79865499  0.66612904  1  0  0.036549  0  3.79357  0  0  0.056548  0  4.020768  0  0  0.0538  0  4.044728  0  0  -0.011931  0.058474  0  4.003876  0
C  C42  1  0.09858131  0.29865948  0.66613044  1  0  0.036425  0  3.793451  0  0  0.056535  0  4.020509  0  0  0.053787  0  4.044465  0  0  -0.011957  0.058458  0  4.003636  0
C  C43  1  0.59857961  0.20134019  0.33387316  1  0  0.036361  0  3.793527  0  0  0.056482  0  4.020513  0  0  0.053732  0  4.044471  0  0  -0.011974  0.0584  0  4.003638  0
C  C44  1  0.87558823  0.75817327  0.24304624  1  0  -0.130412  0  3.692627  0  0  -0.160819  0  3.94093  0  0  -0.161233  0  3.958031  0  0  -0.083323  -0.160928  0  3.93084  0
C  C45  1  0.37559186  0.74182491  0.75695505  1  0  -0.130424  0  3.69267  0  0  -0.160794  0  3.940973  0  0  -0.16122  0  3.958081  0  0  -0.08333  -0.160905  0  3.930885  0
C  C46  1  0.12441240  0.24183041  0.75695836  1  0  -0.130527  0  3.692773  0  0  -0.160925  0  3.941046  0  0  -0.161355  0  3.958162  0  0  -0.083359  -0.16103  0  3.930939  0
C  C47  1  0.62440877  0.25817346  0.24304554  1  0  -0.130403  0  3.692605  0  0  -0.160816  0  3.940887  0  0  -0.161234  0  3.957992  0  0  -0.083316  -0.160923  0  3.93079  0
C  C48  1  0.99466840  0.83670901  0.66061819  1  0  0.120314  0  3.721983  0  0  0.090197  0  3.973711  0  0  0.09724  0  3.988878  0  0  0.034863  0.085609  0  3.964081  0
C  C49  1  0.49466922  0.66328893  0.33938446  1  0  0.120214  0  3.721939  0  0  0.09016  0  3.973635  0  0  0.09717  0  3.988792  0  0  0.03485  0.085571  0  3.964006  0
C  C50  1  0.00533222  0.16329148  0.33938718  1  0  0.120389  0  3.721953  0  0  0.090269  0  3.973657  0  0  0.097298  0  3.988816  0  0  0.034906  0.085684  0  3.964049  0
C  C51  1  0.50533358  0.33670944  0.66061864  1  0  0.120187  0  3.722182  0  0  0.090116  0  3.973881  0  0  0.097125  0  3.989038  0  0  0.034838  0.085529  0  3.964278  0
C  C52  1  0.99325873  0.75291081  0.54172088  1  0  -0.173756  0  3.735383  0  0  -0.187003  0  3.975847  0  0  -0.195794  0  3.997972  0  0  -0.092731  -0.181742  0  3.961731  0
C  C53  1  0.49325904  0.74708819  0.45828375  1  0  -0.173837  0  3.735418  0  0  -0.18701  0  3.975884  0  0  -0.195805  0  3.998022  0  0  -0.092787  -0.181746  0  3.961767  0
C  C54  1  0.00674189  0.24709074  0.45828563  1  0  -0.173743  0  3.735447  0  0  -0.186919  0  3.975935  0  0  -0.195707  0  3.998063  0  0  -0.092712  -0.181657  0  3.961838  0
C  C55  1  0.50674485  0.25291336  0.54172025  1  0  -0.173806  0  3.735528  0  0  -0.186988  0  3.975963  0  0  -0.195776  0  3.998094  0  0  -0.092723  -0.181728  0  3.961867  0
C  C56  1  0.91885856  0.55343140  0.30269662  1  0  -0.108185  0  3.734003  0  0  -0.129365  0  3.979165  0  0  -0.129964  0  3.998967  0  0  -0.090959  -0.127904  0  3.964335  0
C  C57  1  0.41885672  0.94656032  0.69730108  1  0  -0.108316  0  3.734188  0  0  -0.129485  0  3.979389  0  0  -0.130085  0  3.999191  0  0  -0.090999  -0.128027  0  3.964562  0
C  C58  1  0.08114098  0.44656697  0.69730564  1  0  -0.108162  0  3.734015  0  0  -0.129325  0  3.979164  0  0  -0.129923  0  3.998967  0  0  -0.090985  -0.127869  0  3.964343  0
C  C59  1  0.58114064  0.05343168  0.30269770  1  0  -0.108267  0  3.734085  0  0  -0.129416  0  3.97926  0  0  -0.130013  0  3.99906  0  0  -0.090997  -0.127955  0  3.964434  0
C  C60  1  0.90548194  0.46502210  0.18505376  1  0  -0.0529  0  3.759695  0  0  -0.065423  0  4.012883  0  0  -0.068394  0  4.035441  0  0  -0.091968  -0.063874  0  3.998563  0
C  C61  1  0.40548235  0.03497271  0.81494449  1  0  -0.052934  0  3.759666  0  0  -0.065452  0  4.01284  0  0  -0.068423  0  4.035399  0  0  -0.09198  -0.063904  0  3.998522  0
C  C62  1  0.09451760  0.53497521  0.81494569  1  0  -0.053032  0  3.759548  0  0  -0.065534  0  4.01276  0  0  -0.068505  0  4.035336  0  0  -0.091968  -0.063987  0  3.998446  0
C  C63  1  0.59451828  0.96502566  0.18505526  1  0  -0.052925  0  3.759601  0  0  -0.065443  0  4.012787  0  0  -0.068413  0  4.035341  0  0  -0.091962  -0.063896  0  3.998471  0
C  C64  1  0.84958661  0.73095570  0.02909908  1  0  0.260605  0  3.769251  0  0  0.239385  0  4.027075  0  0  0.246187  0  4.045129  0  0  0.210875  0.235825  0  4.015169  0
C  C65  1  0.34958838  0.76904465  0.97090371  1  0  0.260544  0  3.769365  0  0  0.239286  0  4.027197  0  0  0.246081  0  4.04526  0  0  0.210871  0.235728  0  4.015292  0
C  C66  1  0.15041510  0.26904372  0.97090432  1  0  0.260385  0  3.769391  0  0  0.239235  0  4.02712  0  0  0.246027  0  4.045179  0  0  0.210791  0.23567  0  4.0152  0
C  C67  1  0.65041225  0.23095691  0.02909777  1  0  0.260583  0  3.769276  0  0  0.23928  0  4.02718  0  0  0.246076  0  4.045236  0  0  0.210855  0.235717  0  4.015256  0
C  C68  1  0.83998198  0.00025230  0.62620533  1  0  0.123904  0  3.687812  0  0  0.095904  0  3.936488  0  0  0.102676  0  3.951137  0  0  0.039707  0.091935  0  3.926368  0
C  C69  1  0.33998011  0.49974370  0.37379590  1  0  0.124098  0  3.687549  0  0  0.096033  0  3.936266  0  0  0.102807  0  3.950906  0  0  0.039758  0.092061  0  3.926146  0
C  C70  1  0.16001756  0.99975031  0.37379729  1  0  0.124032  0  3.687701  0  0  0.096021  0  3.936367  0  0  0.10279  0  3.951008  0  0  0.039782  0.092022  0  3.926257  0
C  C71  1  0.66001616  0.50025148  0.62620630  1  0  0.124004  0  3.687805  0  0  0.096017  0  3.936479  0  0  0.102788  0  3.951131  0  0  0.039772  0.092032  0  3.926375  0
C  C72  1  0.83418203  0.92225603  0.50543359  1  0  -0.170452  0  3.731108  0  0  -0.184679  0  3.973864  0  0  -0.193146  0  3.996104  0  0  -0.089952  -0.179658  0  3.959398  0
C  C73  1  0.33417915  0.57774329  0.49456979  1  0  -0.170676  0  3.731028  0  0  -0.184919  0  3.973897  0  0  -0.193354  0  3.996145  0  0  -0.090037  -0.179895  0  3.959431  0
C  C74  1  0.16581968  0.07774446  0.49456928  1  0  -0.170575  0  3.731077  0  0  -0.184793  0  3.973921  0  0  -0.193242  0  3.99616  0  0  -0.090002  -0.179775  0  3.959489  0
C  C75  1  0.66581821  0.42225720  0.50543559  1  0  -0.170446  0  3.731102  0  0  -0.184679  0  3.973846  0  0  -0.193146  0  3.996084  0  0  -0.089949  -0.179661  0  3.959409  0
C  C76  1  0.86494878  0.66972359  0.12403319  1  0  0.012031  0  3.790634  0  0  0.031436  0  4.026958  0  0  0.031713  0  4.04495  0  0  -0.002762  0.030183  0  4.016676  0
C  C77  1  0.36495624  0.83027355  0.87596783  1  0  0.01195  0  3.790647  0  0  0.03143  0  4.026866  0  0  0.031716  0  4.044861  0  0  -0.002859  0.030175  0  4.016588  0
C  C78  1  0.13504858  0.33027477  0.87597075  1  0  0.012089  0  3.790807  0  0  0.031506  0  4.027044  0  0  0.031797  0  4.045038  0  0  -0.002743  0.030256  0  4.016753  0
C  C79  1  0.63504873  0.16972482  0.12403276  1  0  0.012076  0  3.790596  0  0  0.031553  0  4.026847  0  0  0.031833  0  4.044842  0  0  -0.002761  0.030303  0  4.016554  0
C  C80  1  0.87694306  0.52220020  0.09589852  1  0  -0.074305  0  3.695877  0  0  -0.100451  0  3.944683  0  0  -0.099547  0  3.96271  0  0  -0.082374  -0.101575  0  3.93481  0
C  C81  1  0.37694482  0.97779797  0.90410110  1  0  -0.074136  0  3.695771  0  0  -0.1003  0  3.944549  0  0  -0.099401  0  3.96258  0  0  -0.082284  -0.101426  0  3.934683  0
C  C82  1  0.12305430  0.47779816  0.90410542  1  0  -0.07416  0  3.695629  0  0  -0.100307  0  3.944422  0  0  -0.099406  0  3.962461  0  0  -0.082304  -0.101431  0  3.934548  0
C  C83  1  0.62305472  0.02220252  0.09589842  1  0  -0.074293  0  3.695819  0  0  -0.100461  0  3.944621  0  0  -0.099555  0  3.962645  0  0  -0.082343  -0.101589  0  3.934754  0
N  N84  1  0.76445001  0.68042852  0.93125472  1  0  -0.282114  0  3.246056  0  0  -0.228225  0  3.572884  0  0  -0.23445  0  3.577962  0  0  -0.260205  -0.224809  0  3.56909  0
N  N85  1  0.26444833  0.81957201  0.06874662  1  0  -0.282023  0  3.245999  0  0  -0.228111  0  3.572776  0  0  -0.234308  0  3.577829  0  0  -0.26012  -0.224691  0  3.568978  0
N  N86  1  0.23555279  0.31957304  0.06874844  1  0  -0.281925  0  3.246173  0  0  -0.228057  0  3.572944  0  0  -0.234257  0  3.577998  0  0  -0.260103  -0.224637  0  3.569086  0
N  N87  1  0.73555338  0.18042530  0.93125367  1  0  -0.282095  0  3.246159  0  0  -0.228159  0  3.572937  0  0  -0.234364  0  3.578001  0  0  -0.260152  -0.224736  0  3.569078  0
N  N88  1  0.92341502  0.84613338  0.02532805  1  0  -0.289422  0  3.250291  0  0  -0.239499  0  3.575893  0  0  -0.244579  0  3.577589  0  0  -0.271125  -0.237014  0  3.574415  0
N  N89  1  0.42341473  0.65386682  0.97467371  1  0  -0.289462  0  3.250335  0  0  -0.239522  0  3.575952  0  0  -0.244625  0  3.577677  0  0  -0.271145  -0.23704  0  3.574478  0
N  N90  1  0.07658017  0.15386393  0.97467307  1  0  -0.289446  0  3.250334  0  0  -0.239545  0  3.575915  0  0  -0.244625  0  3.577622  0  0  -0.271138  -0.237055  0  3.574377  0
N  N91  1  0.57658264  0.34613473  0.02533112  1  0  -0.289421  0  3.25035  0  0  -0.239487  0  3.575985  0  0  -0.244563  0  3.577679  0  0  -0.271173  -0.236999  0  3.574453  0
N  N92  1  0.88062289  0.86550327  0.92333929  1  0  -0.091409  0  3.291355  0  0  -0.05036  0  3.631816  0  0  -0.045897  0  3.629216  0  0  -0.155316  -0.054411  0  3.633769  0
N  N93  1  0.38062575  0.63449808  0.07666289  1  0  -0.091373  0  3.291358  0  0  -0.050376  0  3.631912  0  0  -0.045912  0  3.629307  0  0  -0.15534  -0.054433  0  3.633871  0
N  N94  1  0.11937555  0.13450041  0.07666280  1  0  -0.091395  0  3.291464  0  0  -0.050379  0  3.632001  0  0  -0.045911  0  3.629396  0  0  -0.155359  -0.054438  0  3.633999  0
N  N95  1  0.61937814  0.36550134  0.92334219  1  0  -0.091474  0  3.291338  0  0  -0.050433  0  3.631829  0  0  -0.04599  0  3.629249  0  0  -0.15532  -0.054496  0  3.633834  0
N  N96  1  0.91742921  0.95809096  0.70471479  1  0  -0.283333  0  3.339456  0  0  -0.21166  0  3.633921  0  0  -0.217339  0  3.6379  0  0  -0.358506  -0.208879  0  3.630744  0
N  N97  1  0.41742814  0.54190820  0.29528585  1  0  -0.283304  0  3.3393  0  0  -0.211649  0  3.633821  0  0  -0.21733  0  3.637804  0  0  -0.358491  -0.208867  0  3.630644  0
N  N98  1  0.08257033  0.04191272  0.29528897  1  0  -0.283452  0  3.339505  0  0  -0.21172  0  3.633931  0  0  -0.217386  0  3.637899  0  0  -0.358549  -0.208945  0  3.630831  0
N  N99  1  0.58256922  0.45809124  0.70471336  1  0  -0.28331  0  3.339568  0  0  -0.211647  0  3.634031  0  0  -0.217343  0  3.638037  0  0  -0.358539  -0.208877  0  3.630933  0
N  N100  1  0.78605477  0.76631999  0.86663673  1  0  -0.098877  0  2.936  0  0  -0.09236  0  3.230045  0  0  -0.09253  0  3.238004  0  0  -0.11077  -0.092187  0  3.225156  0
N  N101  1  0.28605623  0.73368049  0.13336540  1  0  -0.098891  0  2.935966  0  0  -0.09236  0  3.230028  0  0  -0.092532  0  3.237977  0  0  -0.110795  -0.092188  0  3.225141  0
N  N102  1  0.21394476  0.23368263  0.13336422  1  0  -0.098885  0  2.93623  0  0  -0.092375  0  3.23033  0  0  -0.09255  0  3.238284  0  0  -0.11078  -0.092204  0  3.225433  0
N  N103  1  0.71394657  0.26631788  0.86663854  1  0  -0.09884  0  2.936115  0  0  -0.092335  0  3.230153  0  0  -0.092502  0  3.238111  0  0  -0.11079  -0.092163  0  3.22526  0
