# generated using pymatgen
data_CdH20C29N4O7
_symmetry_space_group_name_H-M   'P 1'
_cell_length_a   14.57182741
_cell_length_b   14.95461429
_cell_length_c   14.95460443
_cell_angle_alpha   94.81476321
_cell_angle_beta   106.13340852
_cell_angle_gamma   106.13356835
_symmetry_Int_Tables_number   1
_chemical_formula_structural   CdH20C29N4O7
_chemical_formula_sum   'Cd4 H80 C116 N16 O28'
_cell_volume   2961.00520984
_cell_formula_units_Z   4
loop_
 _symmetry_equiv_pos_site_id
 _symmetry_equiv_pos_as_xyz
  1  'x, y, z'
loop_
 _atom_site_type_symbol
 _atom_site_label
 _atom_site_symmetry_multiplicity
 _atom_site_fract_x
 _atom_site_fract_y
 _atom_site_fract_z
 _atom_site_occupancy
 _atom_site_pbe_bader_charge
 _atom_site_pbe_bader_spin_density
 _atom_site_pbe_cm5_charge
 _atom_site_pbe_ddec_charge
 _atom_site_pbe_ddec_spin_density
 _atom_site_pbe_ddec_sum_bond_order
 _atom_site_pbe_magmom
Cd  Cd0  1  0.60569609  0.61586278  0.26962482  1  1.282285  0  0.774418  0.893097  0  2.213874  0
Cd  Cd1  1  0.89430434  0.73037438  0.38413805  1  1.282272  0  0.774401  0.893067  0  2.213921  0
Cd  Cd2  1  0.39430485  0.38413791  0.73037409  1  1.282269  0  0.774421  0.893077  0  2.213895  0
Cd  Cd3  1  0.10569563  0.26962561  0.61586321  1  1.282264  0  0.774391  0.893055  0  2.213928  0
H  H4  1  0.62248167  0.38265796  0.69548413  1  0.557045  0  0.311682  0.302056  0  0.98684  0
H  H5  1  0.87752134  0.30451743  0.61734416  1  0.557047  0  0.311687  0.302071  0  0.986819  0
H  H6  1  0.37751950  0.61734131  0.30451540  1  0.557027  0  0.311714  0.302093  0  0.986821  0
H  H7  1  0.12248100  0.69548325  0.38265849  1  0.557054  0  0.311682  0.302064  0  0.986839  0
H  H8  1  0.63261077  0.73190624  0.47706910  1  0.093449  0  0.116952  0.086769  0  1.00592  0
H  H9  1  0.86738782  0.52293165  0.26809538  1  0.093462  0  0.116952  0.086782  0  1.005929  0
H  H10  1  0.36738849  0.26809162  0.52293045  1  0.093416  0  0.116937  0.086786  0  1.005872  0
H  H11  1  0.13260975  0.47706763  0.73190649  1  0.093504  0  0.116935  0.086765  0  1.005909  0
H  H12  1  0.62471120  0.02755793  0.91323879  1  0.613549  0  0.332468  0.36107  0  0.897573  0
H  H13  1  0.87528993  0.08676296  0.97244332  1  0.613535  0  0.332484  0.361113  0  0.897469  0
H  H14  1  0.37528949  0.97244204  0.08676067  1  0.61346  0  0.332486  0.361137  0  0.897486  0
H  H15  1  0.12471123  0.91323843  0.02755772  1  0.613563  0  0.332454  0.361063  0  0.89753  0
H  H16  1  0.58794667  0.20123118  0.32082928  1  0.115396  0  0.113798  0.11862  0  1.006353  0
H  H17  1  0.91205123  0.67916997  0.79876855  1  0.115393  0  0.113804  0.11863  0  1.006331  0
H  H18  1  0.41205189  0.79876881  0.67916825  1  0.115394  0  0.113765  0.118553  0  1.006325  0
H  H19  1  0.08794138  0.32082934  0.20122860  1  0.115364  0  0.113775  0.118624  0  1.006371  0
H  H20  1  0.63564994  0.54499963  0.68244518  1  0.133769  0  0.111624  0.124965  0  1.007517  0
H  H21  1  0.86435532  0.31755551  0.45500172  1  0.133782  0  0.111628  0.12501  0  1.00745  0
H  H22  1  0.36435171  0.45499893  0.31755442  1  0.133757  0  0.111634  0.124977  0  1.007525  0
H  H23  1  0.13564798  0.68244588  0.54499924  1  0.133767  0  0.111623  0.125004  0  1.007487  0
H  H24  1  0.64224706  0.70613521  0.64290313  1  0.089051  0  0.113321  0.121033  0  0.984026  0
H  H25  1  0.85775439  0.35709704  0.29386405  1  0.089024  0  0.113316  0.121042  0  0.984021  0
H  H26  1  0.35775577  0.29386476  0.35709692  1  0.089154  0  0.113317  0.121038  0  0.984025  0
H  H27  1  0.14224582  0.64290365  0.70613667  1  0.089129  0  0.11333  0.121072  0  0.983954  0
H  H28  1  0.58352388  0.41624605  0.14467738  1  0.117644  0  0.122442  0.098455  0  0.985726  0
H  H29  1  0.91647491  0.85532374  0.58375330  1  0.117637  0  0.122456  0.098488  0  0.985697  0
H  H30  1  0.41647491  0.58375252  0.85532143  1  0.117615  0  0.122421  0.098478  0  0.985735  0
H  H31  1  0.08352555  0.14467766  0.41624688  1  0.117643  0  0.122465  0.098459  0  0.985702  0
H  H32  1  0.61648404  0.28550972  0.78754175  1  0.089315  0  0.105845  0.119861  0  1.049599  0
H  H33  1  0.88351800  0.21246042  0.71449214  1  0.089359  0  0.105825  0.11983  0  1.04973  0
H  H34  1  0.38351784  0.71449167  0.21245882  1  0.089342  0  0.105822  0.119828  0  1.049715  0
H  H35  1  0.11648245  0.78754097  0.28550804  1  0.089339  0  0.105824  0.119817  0  1.049711  0
H  H36  1  0.57317645  0.24725506  0.16154345  1  0.0749  0  0.110475  0.113536  0  1.001219  0
H  H37  1  0.92682137  0.83845531  0.75274427  1  0.07492  0  0.110503  0.11358  0  1.001223  0
H  H38  1  0.42682257  0.75274422  0.83845548  1  0.074943  0  0.110487  0.113554  0  1.001216  0
H  H39  1  0.07317384  0.16154115  0.24725337  1  0.07486  0  0.110512  0.113596  0  1.001248  0
H  H40  1  0.62280968  0.08321214  0.56801412  1  0.105828  0  0.102926  0.118923  0  1.06465  0
H  H41  1  0.87718819  0.43198672  0.91678806  1  0.1058  0  0.102952  0.11893  0  1.064643  0
H  H42  1  0.37719006  0.91678713  0.43198502  1  0.105835  0  0.102933  0.118943  0  1.064629  0
H  H43  1  0.12281034  0.56801327  0.08321347  1  0.105815  0  0.102943  0.118964  0  1.064613  0
H  H44  1  0.37044835  0.45480958  0.95575337  1  0.153836  0  0.107383  0.124462  0  1.025826  0
H  H45  1  0.12955160  0.04424790  0.54519188  1  0.153963  0  0.10737  0.124377  0  1.025926  0
H  H46  1  0.62955210  0.54518970  0.04424729  1  0.153843  0  0.107362  0.124362  0  1.025919  0
H  H47  1  0.87044811  0.95575137  0.45481126  1  0.154016  0  0.107369  0.124378  0  1.025887  0
H  H48  1  0.23636026  0.47283156  0.17725432  1  0.087317  0  0.096678  0.093873  0  1.060297  0
H  H49  1  0.26364085  0.82274588  0.52717084  1  0.087306  0  0.096679  0.09387  0  1.060302  0
H  H50  1  0.76364115  0.52717054  0.82274618  1  0.0873  0  0.096679  0.093873  0  1.060303  0
H  H51  1  0.73635984  0.17725410  0.47282995  1  0.087312  0  0.096684  0.093882  0  1.060291  0
H  H52  1  0.62102097  0.84398438  0.57587403  1  0.063895  0  0.100516  0.105235  0  1.010848  0
H  H53  1  0.87897770  0.42412833  0.15601436  1  0.063913  0  0.100522  0.105222  0  1.010849  0
H  H54  1  0.37897780  0.15601419  0.42412612  1  0.063916  0  0.100515  0.105226  0  1.010834  0
H  H55  1  0.12102229  0.57587378  0.84398507  1  0.063899  0  0.100514  0.105225  0  1.010859  0
H  H56  1  0.68786504  0.96150798  0.56678829  1  0.020079  0  0.090626  0.08573  0  1.048933  0
H  H57  1  0.81213405  0.43321473  0.03849198  1  0.020025  0  0.090622  0.085719  0  1.048911  0
H  H58  1  0.31213467  0.03849129  0.43321351  1  0.020045  0  0.090606  0.085694  0  1.04895  0
H  H59  1  0.18786545  0.56678596  0.96150854  1  0.020048  0  0.090599  0.085689  0  1.048958  0
H  H60  1  0.55260119  0.92083633  0.52981458  1  0.069082  0  0.095399  0.099914  0  1.030124  0
H  H61  1  0.94739804  0.47018551  0.07916417  1  0.069073  0  0.095426  0.099967  0  1.030112  0
H  H62  1  0.44739903  0.07916436  0.47018480  1  0.069079  0  0.095412  0.099927  0  1.030118  0
H  H63  1  0.05260195  0.52981447  0.92083509  1  0.069092  0  0.095407  0.099937  0  1.030132  0
H  H64  1  0.61076242  0.25104936  0.02156739  1  0.030731  0  0.105281  0.108614  0  0.992618  0
H  H65  1  0.88923726  0.97843379  0.74895219  1  0.030771  0  0.105267  0.10858  0  0.992623  0
H  H66  1  0.38923851  0.74895133  0.97843286  1  0.030756  0  0.105257  0.108569  0  0.992587  0
H  H67  1  0.11076223  0.02156690  0.25104833  1  0.030747  0  0.10527  0.108587  0  0.992554  0
H  H68  1  0.67184615  0.31245191  0.94581863  1  0.059832  0  0.097258  0.096297  0  1.023102  0
H  H69  1  0.82815277  0.05418258  0.68754864  1  0.05983  0  0.097277  0.096294  0  1.023022  0
H  H70  1  0.32815524  0.68754806  0.05418236  1  0.059835  0  0.097245  0.096274  0  1.023141  0
H  H71  1  0.17184601  0.94581812  0.31245234  1  0.059818  0  0.097266  0.096301  0  1.023044  0
H  H72  1  0.53719517  0.26000221  0.90592913  1  0.095528  0  0.105984  0.118907  0  0.98331  0
H  H73  1  0.96280449  0.09407255  0.73999906  1  0.095517  0  0.10599  0.118949  0  0.983287  0
H  H74  1  0.46280646  0.73999848  0.09407265  1  0.095473  0  0.105989  0.11895  0  0.983298  0
H  H75  1  0.03719524  0.90592885  0.26000225  1  0.095518  0  0.105986  0.118923  0  0.983282  0
H  H76  1  0.07273937  0.36629158  0.07043134  1  0.052373  0  0.097799  0.094607  0  1.04605  0
H  H77  1  0.42726151  0.92956863  0.63371013  1  0.05238  0  0.097791  0.094614  0  1.045988  0
H  H78  1  0.92726205  0.63371052  0.92956849  1  0.052603  0  0.097806  0.094613  0  1.045985  0
H  H79  1  0.57273940  0.07043205  0.36629145  1  0.052635  0  0.097808  0.09462  0  1.045962  0
H  H80  1  0.05824001  0.30111615  0.90539075  1  0.125811  0  0.096278  0.094671  0  1.072882  0
H  H81  1  0.44176082  0.09461026  0.69888258  1  0.125797  0  0.096263  0.094608  0  1.07298  0
H  H82  1  0.94175996  0.69888383  0.09460985  1  0.1258  0  0.096268  0.094619  0  1.072976  0
H  H83  1  0.55823797  0.90539044  0.30111641  1  0.125794  0  0.096285  0.094644  0  1.072914  0
C  C84  1  0.60492918  0.34126588  0.38777869  1  -0.024706  0  0.000417  -0.011728  0  4.008095  0
C  C85  1  0.89507263  0.61222149  0.65873485  1  -0.024755  0  0.000455  -0.011618  0  4.008084  0
C  C86  1  0.39506962  0.65873269  0.61221878  1  -0.024741  0  0.000389  -0.011689  0  4.007877  0
C  C87  1  0.10492591  0.38777850  0.34126602  1  -0.02494  0  0.000427  -0.011641  0  4.008028  0
C  C88  1  0.62115157  0.39317060  0.55355693  1  0.358796  0  0.090255  0.082592  0  4.059841  0
C  C89  1  0.87885210  0.44644367  0.60683068  1  0.359025  0  0.090269  0.082634  0  4.059912  0
C  C90  1  0.37884913  0.60682726  0.44644101  1  0.358765  0  0.090247  0.0826  0  4.059816  0
C  C91  1  0.12114881  0.55355702  0.39317157  1  0.358792  0  0.090224  0.082549  0  4.060003  0
C  C92  1  0.62470873  0.48700037  0.54061255  1  0.035881  0  -0.001093  -0.017119  0  4.018733  0
C  C93  1  0.87529663  0.45938857  0.51300156  1  0.035863  0  -0.001116  -0.017207  0  4.019006  0
C  C94  1  0.37529197  0.51299961  0.45938624  1  0.035887  0  -0.001098  -0.017043  0  4.018747  0
C  C95  1  0.12470643  0.54061211  0.48700062  1  0.036097  0  -0.00105  -0.017041  0  4.018829  0
C  C96  1  0.60833028  0.43458876  0.37149517  1  0.499693  0  0.113335  0.112383  0  3.980378  0
C  C97  1  0.89167096  0.62850530  0.56541168  1  0.499697  0  0.113337  0.112336  0  3.98039  0
C  C98  1  0.39166993  0.56540981  0.62850470  1  0.499931  0  0.113334  0.11243  0  3.980238  0
C  C99  1  0.10832877  0.37149398  0.43458879  1  0.499703  0  0.113337  0.112373  0  3.980347  0
C  C100  1  0.61906088  0.25860184  0.60615583  1  0.952884  0  0.22201  0.308462  0  3.987892  0
C  C101  1  0.88094136  0.39384543  0.74139923  1  0.95283  0  0.222002  0.308495  0  3.987932  0
C  C102  1  0.38094147  0.74139884  0.39384481  1  0.952874  0  0.221962  0.308441  0  3.987907  0
C  C103  1  0.11905765  0.60615385  0.25860104  1  0.952837  0  0.221935  0.308342  0  3.988043  0
C  C104  1  0.62378870  0.03472726  0.70063236  1  0.464472  0  0.070111  0.157163  0  4.076668  0
C  C105  1  0.87620865  0.29936832  0.96527205  1  0.464302  0  0.070085  0.157162  0  4.076623  0
C  C106  1  0.37621057  0.96527273  0.29936670  1  0.464335  0  0.070116  0.157209  0  4.076696  0
C  C107  1  0.12378990  0.70063167  0.03472748  1  0.464369  0  0.070108  0.157208  0  4.076608  0
C  C108  1  0.61883803  0.50775742  0.44805629  1  0.511261  0  0.113467  0.115408  0  3.982595  0
C  C109  1  0.88116481  0.55194405  0.49224385  1  0.511412  0  0.113469  0.115464  0  3.982752  0
C  C110  1  0.38116242  0.49224186  0.55194304  1  0.511377  0  0.11347  0.115264  0  3.982617  0
C  C111  1  0.11883633  0.44805522  0.50775835  1  0.51153  0  0.113414  0.11537  0  3.982648  0
C  C112  1  0.61292350  0.32240904  0.48129410  1  0.493724  0  0.083156  0.080252  0  4.115733  0
C  C113  1  0.88707814  0.51870699  0.67759113  1  0.493756  0  0.083151  0.080202  0  4.115781  0
C  C114  1  0.38707601  0.67758953  0.51870424  1  0.493782  0  0.083193  0.080212  0  4.115683  0
C  C115  1  0.11291991  0.48129371  0.32241032  1  0.493754  0  0.08313  0.08012  0  4.115742  0
C  C116  1  0.62104572  0.19158541  0.67109009  1  0.03376  0  -0.021543  0.02485  0  4.093421  0
C  C117  1  0.87895471  0.32891175  0.80841477  1  0.033757  0  -0.021573  0.024807  0  4.09357  0
C  C118  1  0.37895547  0.80841387  0.32890744  1  0.03377  0  -0.021486  0.02489  0  4.093302  0
C  C119  1  0.12104336  0.67108895  0.19158536  1  0.03384  0  -0.021532  0.024848  0  4.093418  0
C  C120  1  0.41390698  0.53030969  0.14054757  1  1.521284  0  0.194291  0.560801  0  4.221309  0
C  C121  1  0.08609386  0.85945224  0.46969048  1  1.521262  0  0.194245  0.560769  0  4.221501  0
C  C122  1  0.58609324  0.46969100  0.85945181  1  1.521291  0  0.194236  0.560739  0  4.221405  0
C  C123  1  0.91390612  0.14054775  0.53030945  1  1.521274  0  0.194258  0.560784  0  4.221317  0
C  C124  1  0.63009850  0.66310083  0.49709637  1  0.499712  0  0.049173  0.103523  0  3.966276  0
C  C125  1  0.86990097  0.50290262  0.33689877  1  0.499708  0  0.049116  0.103437  0  3.966381  0
C  C126  1  0.36990363  0.33689702  0.50290264  1  0.499735  0  0.049218  0.10355  0  3.966444  0
C  C127  1  0.13009519  0.49709666  0.66310138  1  0.499705  0  0.049184  0.103498  0  3.966423  0
C  C128  1  0.59214959  0.27324125  0.31038740  1  -0.020821  0  -0.059656  -0.051086  0  3.909931  0
C  C129  1  0.90785068  0.68961383  0.72675906  1  -0.020799  0  -0.059664  -0.051128  0  3.909872  0
C  C130  1  0.40784778  0.72675733  0.68961035  1  -0.020786  0  -0.059591  -0.050975  0  3.909794  0
C  C131  1  0.09214978  0.31038756  0.27323978  1  -0.020582  0  -0.059593  -0.051066  0  3.909936  0
C  C132  1  0.63305445  0.55990001  0.61173692  1  -0.057162  0  -0.066733  -0.062993  0  3.908332  0
C  C133  1  0.86695116  0.38826424  0.44010174  1  -0.057233  0  -0.066743  -0.063026  0  3.90835  0
C  C134  1  0.36694912  0.44009996  0.38826066  1  -0.057179  0  -0.06675  -0.063008  0  3.908323  0
C  C135  1  0.13305000  0.61173715  0.55989930  1  -0.057152  0  -0.066764  -0.063107  0  3.908458  0
C  C136  1  0.63604197  0.64837637  0.58974828  1  0.008995  0  -0.083826  -0.134872  0  4.001781  0
C  C137  1  0.86395821  0.41025142  0.35162348  1  0.009079  0  -0.083767  -0.134822  0  4.001828  0
C  C138  1  0.36395943  0.35162361  0.41025271  1  0.008825  0  -0.083859  -0.134958  0  4.001976  0
C  C139  1  0.13604033  0.58974857  0.64837671  1  0.008833  0  -0.083783  -0.134852  0  4.001806  0
C  C140  1  0.58948169  0.39267363  0.21256896  1  0.520019  0  0.053093  0.10023  0  3.948856  0
C  C141  1  0.91051783  0.78743028  0.60732608  1  0.519975  0  0.053048  0.100077  0  3.948879  0
C  C142  1  0.41051663  0.60732565  0.78742977  1  0.520078  0  0.053056  0.100049  0  3.948849  0
C  C143  1  0.08948167  0.21256829  0.39267226  1  0.519989  0  0.053009  0.100224  0  3.948799  0
C  C144  1  0.62168600  0.15040528  0.82364046  1  0.451905  0  0.065381  0.135298  0  4.115235  0
C  C145  1  0.87831361  0.17636224  0.84959465  1  0.451705  0  0.065363  0.135347  0  4.11542  0
C  C146  1  0.37831469  0.84959469  0.17635966  1  0.451925  0  0.065354  0.135277  0  4.115226  0
C  C147  1  0.12168566  0.82363987  0.15040458  1  0.451643  0  0.065398  0.135346  0  4.115163  0
C  C148  1  0.62047231  0.21648353  0.76352559  1  0.005051  0  -0.111859  -0.241841  0  4.003316  0
C  C149  1  0.87952732  0.23647586  0.78351686  1  0.004787  0  -0.111797  -0.241837  0  4.003472  0
C  C150  1  0.37952861  0.78351716  0.23647466  1  0.004979  0  -0.111831  -0.24181  0  4.003499  0
C  C151  1  0.12047098  0.76352554  0.21648339  1  0.004819  0  -0.111824  -0.241764  0  4.003332  0
C  C152  1  0.58424749  0.29896262  0.22255985  1  -0.033872  0  -0.083212  -0.13507  0  3.999172  0
C  C153  1  0.91575234  0.77744098  0.70103657  1  -0.033881  0  -0.083247  -0.135069  0  3.999199  0
C  C154  1  0.41575155  0.70103666  0.77743842  1  -0.033856  0  -0.083229  -0.135085  0  3.999237  0
C  C155  1  0.08424765  0.22255900  0.29896135  1  -0.033838  0  -0.083238  -0.135162  0  3.999199  0
C  C156  1  0.62265402  0.10079096  0.63998123  1  -0.001575  0  -0.116325  -0.267462  0  4.001555  0
C  C157  1  0.87734523  0.36001950  0.89920910  1  -0.001462  0  -0.116342  -0.267414  0  4.001536  0
C  C158  1  0.37734810  0.89921114  0.36001947  1  -0.0014  0  -0.116345  -0.267524  0  4.00157  0
C  C159  1  0.12265260  0.63998048  0.10079089  1  -0.001477  0  -0.116354  -0.267538  0  4.001567  0
C  C160  1  0.62365251  0.05940886  0.79353938  1  0.554996  0  0.065063  0.108293  0  4.064482  0
C  C161  1  0.87634663  0.20646221  0.94059234  1  0.555042  0  0.065116  0.108305  0  4.064589  0
C  C162  1  0.37634889  0.94059324  0.20646112  1  0.555031  0  0.065103  0.108313  0  4.064474  0
C  C163  1  0.12365144  0.79353849  0.05940778  1  0.555019  0  0.065065  0.108256  0  4.064442  0
C  C164  1  0.31459366  0.46858802  0.07413561  1  -0.018259  0  -0.027243  -0.054414  0  4.001484  0
C  C165  1  0.18540731  0.92586554  0.53141378  1  -0.018184  0  -0.027224  -0.054363  0  4.00146  0
C  C166  1  0.68540702  0.53141195  0.92586518  1  -0.018218  0  -0.027162  -0.054268  0  4.001477  0
C  C167  1  0.81459480  0.07413443  0.46858808  1  -0.018486  0  -0.027188  -0.054301  0  4.001461  0
C  C168  1  0.30526655  0.43461304  0.98074243  1  -0.039714  0  -0.074765  -0.100338  0  3.8987  0
C  C169  1  0.19473557  0.01925791  0.56538875  1  -0.039834  0  -0.074766  -0.100222  0  3.898792  0
C  C170  1  0.69473462  0.56538623  0.01925710  1  -0.039717  0  -0.074814  -0.100294  0  3.89889  0
C  C171  1  0.80526392  0.98074278  0.43461177  1  -0.039617  0  -0.074796  -0.100304  0  3.898833  0
C  C172  1  0.23042517  0.44363964  0.10593687  1  -0.056241  0  -0.085792  -0.091075  0  3.983127  0
C  C173  1  0.26957382  0.89406200  0.55636068  1  -0.056282  0  -0.08581  -0.091077  0  3.983074  0
C  C174  1  0.76957339  0.55636035  0.89406132  1  -0.056296  0  -0.085815  -0.091114  0  3.983076  0
C  C175  1  0.73042614  0.10593798  0.44363992  1  -0.056289  0  -0.0858  -0.091119  0  3.983092  0
C  C176  1  0.62132492  0.91740531  0.58144689  1  0.399195  0  -0.144046  -0.177193  0  3.9083  0
C  C177  1  0.87867321  0.41855558  0.08259343  1  0.399166  0  -0.14408  -0.177227  0  3.908177  0
C  C178  1  0.37867386  0.08259326  0.41855325  1  0.399198  0  -0.14405  -0.177152  0  3.908239  0
C  C179  1  0.12132725  0.58144582  0.91740608  1  0.399174  0  -0.144029  -0.177152  0  3.908236  0
C  C180  1  0.60886498  0.25265102  0.94809564  1  0.387839  0  -0.133317  -0.155777  0  3.869926  0
C  C181  1  0.89113595  0.05190700  0.74735021  1  0.387847  0  -0.133321  -0.155775  0  3.869832  0
C  C182  1  0.39113807  0.74734966  0.05190720  1  0.38786  0  -0.133308  -0.155805  0  3.869958  0
C  C183  1  0.10886449  0.94809439  0.25265063  1  0.387856  0  -0.133307  -0.155757  0  3.869786  0
C  C184  1  0.21231845  0.37452923  0.92039950  1  -0.109134  0  -0.022252  -0.040249  0  3.966282  0
C  C185  1  0.28768127  0.07959970  0.62547008  1  -0.109144  0  -0.022232  -0.040388  0  3.96645  0
C  C186  1  0.78768224  0.62546863  0.07960044  1  -0.109104  0  -0.022252  -0.040345  0  3.966378  0
C  C187  1  0.71231917  0.92039957  0.37453058  1  -0.10911  0  -0.022248  -0.040282  0  3.96622  0
C  C188  1  0.13829850  0.38356755  0.04588284  1  -0.043773  0  -0.09697  -0.099507  0  4.021108  0
C  C189  1  0.36170172  0.95411920  0.61643255  1  -0.043712  0  -0.097028  -0.099655  0  4.021055  0
C  C190  1  0.86170100  0.61643314  0.95411768  1  -0.043945  0  -0.097028  -0.099591  0  4.021016  0
C  C191  1  0.63830137  0.04588361  0.38356581  1  -0.044013  0  -0.096966  -0.099493  0  4.021061  0
C  C192  1  0.12945169  0.34793444  0.95371225  1  0.019454  0  -0.080354  -0.074943  0  3.939947  0
C  C193  1  0.37055045  0.04628809  0.65206375  1  0.01936  0  -0.080302  -0.074718  0  3.939905  0
C  C194  1  0.87055114  0.65206341  0.04628762  1  0.019374  0  -0.080276  -0.07476  0  3.939903  0
C  C195  1  0.62944956  0.95371402  0.34793301  1  0.019423  0  -0.080374  -0.074919  0  3.939895  0
C  C196  1  0.19820674  0.34333159  0.81830644  1  1.544507  0  0.204789  0.583819  0  4.199164  0
C  C197  1  0.30179484  0.18169437  0.65666837  1  1.544457  0  0.204857  0.584045  0  4.199089  0
C  C198  1  0.80179227  0.65666556  0.18169365  1  1.544548  0  0.2048  0.583868  0  4.199069  0
C  C199  1  0.69820369  0.81830561  0.34333250  1  1.54445  0  0.204877  0.584009  0  4.199067  0
N  N200  1  0.62155617  0.59519511  0.42895175  1  -1.247907  0  -0.321427  -0.273464  0  3.51806  0
N  N201  1  0.87844515  0.57104788  0.40480620  1  -1.247865  0  -0.321418  -0.273453  0  3.518158  0
N  N202  1  0.37844571  0.40480416  0.57104798  1  -1.247984  0  -0.321412  -0.273393  0  3.518093  0
N  N203  1  0.12155148  0.42895070  0.59519468  1  -1.248035  0  -0.321426  -0.273442  0  3.518093  0
N  N204  1  0.60083288  0.45759614  0.28479016  1  -1.22592  0  -0.320334  -0.256386  0  3.507909  0
N  N205  1  0.89916690  0.71520878  0.54240265  1  -1.225912  0  -0.320346  -0.256329  0  3.507897  0
N  N206  1  0.39916734  0.54240242  0.71520905  1  -1.226188  0  -0.320313  -0.256269  0  3.507787  0
N  N207  1  0.10083165  0.28478908  0.45759537  1  -1.225902  0  -0.320327  -0.256403  0  3.507961  0
N  N208  1  0.62490755  0.35128142  0.63205969  1  -1.26992  0  -0.375725  -0.298629  0  3.559386  0
N  N209  1  0.87509458  0.36794105  0.64871985  1  -1.269775  0  -0.375729  -0.29864  0  3.559331  0
N  N210  1  0.37509339  0.64871927  0.36793923  1  -1.269931  0  -0.375765  -0.298721  0  3.559372  0
N  N211  1  0.12490586  0.63205822  0.35128149  1  -1.269781  0  -0.375699  -0.298608  0  3.559431  0
N  N212  1  0.61203256  0.23962154  0.51472118  1  -1.170616  0  -0.334478  -0.394268  0  3.215327  0
N  N213  1  0.88796853  0.48528122  0.76037893  1  -1.170602  0  -0.334465  -0.394265  0  3.215375  0
N  N214  1  0.38796884  0.76037844  0.48527914  1  -1.170589  0  -0.33445  -0.394205  0  3.215444  0
N  N215  1  0.11202882  0.51471947  0.23962166  1  -1.170574  0  -0.334389  -0.394063  0  3.215365  0
O  O216  1  0.41870474  0.56079090  0.22550875  1  -1.199667  0  -0.337541  -0.599169  0  2.273608  0
O  O217  1  0.08129758  0.77449261  0.43921037  1  -1.199669  0  -0.337498  -0.599158  0  2.273747  0
O  O218  1  0.58129571  0.43921049  0.77449142  1  -1.199672  0  -0.337494  -0.599146  0  2.273698  0
O  O219  1  0.91870383  0.22550736  0.56078929  1  -1.199656  0  -0.337482  -0.599152  0  2.27374  0
O  O220  1  0.49122115  0.54902972  0.11345264  1  -1.15845  0  -0.321962  -0.534928  0  2.179262  0
O  O221  1  0.00877922  0.88654806  0.45097043  1  -1.158424  0  -0.321948  -0.534915  0  2.179263  0
O  O222  1  0.50877788  0.45096956  0.88654630  1  -1.158432  0  -0.32194  -0.534905  0  2.179278  0
O  O223  1  0.99122312  0.11345262  0.54903155  1  -1.158452  0  -0.321996  -0.534965  0  2.179123  0
O  O224  1  0.62402796  0.99521471  0.85316520  1  -1.121655  0  -0.350688  -0.413751  0  2.273639  0
O  O225  1  0.87597198  0.14683723  0.00478593  1  -1.121572  0  -0.350693  -0.413774  0  2.273607  0
O  O226  1  0.37597273  0.00478527  0.14683426  1  -1.121602  0  -0.350699  -0.413805  0  2.273602  0
O  O227  1  0.12402847  0.85316416  0.99521425  1  -1.121678  0  -0.35067  -0.413734  0  2.273609  0
O  O228  1  0.62359932  0.94439411  0.67639670  1  -1.058468  0  -0.193869  -0.152658  0  2.556838  0
O  O229  1  0.87639658  0.32360380  0.05560516  1  -1.058422  0  -0.193888  -0.152712  0  2.556806  0
O  O230  1  0.37639851  0.05560588  0.32360329  1  -1.058484  0  -0.193888  -0.152707  0  2.556815  0
O  O231  1  0.12360125  0.67639619  0.94439484  1  -1.058428  0  -0.193869  -0.152683  0  2.556841  0
O  O232  1  0.61974387  0.16466372  0.91482684  1  -1.081421  0  -0.196743  -0.179494  0  2.591293  0
O  O233  1  0.88025622  0.08517495  0.83533568  1  -1.081408  0  -0.196751  -0.179521  0  2.591365  0
O  O234  1  0.38025729  0.83533555  0.08517336  1  -1.081353  0  -0.196727  -0.179445  0  2.591342  0
O  O235  1  0.11974448  0.91482715  0.16466462  1  -1.081417  0  -0.196753  -0.179526  0  2.591278  0
O  O236  1  0.26322459  0.38863037  0.78301107  1  -1.20639  0  -0.342883  -0.598368  0  2.38509  0
O  O237  1  0.23677385  0.21698919  0.61136961  1  -1.206608  0  -0.342883  -0.598436  0  2.385014  0
O  O238  1  0.73677278  0.61136821  0.21698668  1  -1.206484  0  -0.342901  -0.598394  0  2.385079  0
O  O239  1  0.76322636  0.78301150  0.38863110  1  -1.206608  0  -0.342892  -0.598439  0  2.384982  0
O  O240  1  0.11791901  0.27701128  0.77014845  1  -1.148389  0  -0.329064  -0.536986  0  2.220434  0
O  O241  1  0.38208027  0.22985121  0.72298762  1  -1.148387  0  -0.329114  -0.537096  0  2.220564  0
O  O242  1  0.88208000  0.72298800  0.22985249  1  -1.14832  0  -0.329051  -0.53698  0  2.220336  0
O  O243  1  0.61791970  0.77014877  0.27701298  1  -1.148389  0  -0.329132  -0.537086  0  2.220569  0
