# generated using pymatgen
data_AlH16(C7O2)3
_symmetry_space_group_name_H-M   'P 1'
_cell_length_a   6.65903492
_cell_length_b   21.59515028
_cell_length_c   25.29464051
_cell_angle_alpha   96.27631730
_cell_angle_beta   90.00301264
_cell_angle_gamma   90.00198745
_symmetry_Int_Tables_number   1
_chemical_formula_structural   AlH16(C7O2)3
_chemical_formula_sum   'Al4 H64 C84 O24'
_cell_volume   3615.63963933
_cell_formula_units_Z   4
loop_
 _symmetry_equiv_pos_site_id
 _symmetry_equiv_pos_as_xyz
  1  'x, y, z'
loop_
 _atom_site_type_symbol
 _atom_site_label
 _atom_site_symmetry_multiplicity
 _atom_site_fract_x
 _atom_site_fract_y
 _atom_site_fract_z
 _atom_site_occupancy
 _atom_site_pbe_bader_charge
 _atom_site_pbe_bader_spin_density
 _atom_site_pbe_cm5_charge
 _atom_site_pbe_ddec_charge
 _atom_site_pbe_ddec_spin_density
 _atom_site_pbe_ddec_sum_bond_order
 _atom_site_pbe_magmom
Al  Al0  1  0.23495803  0.25066364  0.25068755  1  2.500686  0  0.396303  1.639411  0  2.587502  0
Al  Al1  1  0.77852842  0.74941565  0.74909553  1  2.501393  0  0.396571  1.641616  0  2.581001  0
Al  Al2  1  0.73497019  0.24937373  0.24931463  1  2.50044  0  0.396461  1.639598  0  2.587183  0
Al  Al3  1  0.27853581  0.75061228  0.75091664  1  2.501727  0  0.396578  1.641498  0  2.581303  0
H  H4  1  0.99010911  0.37558026  0.58328529  1  0.07845  0  0.109868  0.126012  0  0.992096  0
H  H5  1  0.82831060  0.62156691  0.41642189  1  0.062807  0  0.108515  0.126434  0  0.988637  0
H  H6  1  0.48982743  0.12443277  0.91672950  1  0.079237  0  0.109828  0.126059  0  0.992125  0
H  H7  1  0.32846279  0.87842411  0.08359466  1  0.063696  0  0.108509  0.126482  0  0.988646  0
H  H8  1  0.02781725  0.37051467  0.40848185  1  0.115665  0  0.108468  0.109655  0  1.05241  0
H  H9  1  0.95970457  0.63341319  0.58992406  1  0.128195  0  0.107572  0.109601  0  1.070755  0
H  H10  1  0.52764851  0.12950539  0.09152655  1  0.116003  0  0.10848  0.109693  0  1.052513  0
H  H11  1  0.46013745  0.86659033  0.91011969  1  0.12885  0  0.107581  0.109528  0  1.070928  0
H  H12  1  0.89748869  0.46308128  0.27031163  1  0.070074  0  0.107781  0.109853  0  0.986432  0
H  H13  1  0.11293667  0.53670961  0.72412970  1  0.074952  0  0.108149  0.110339  0  0.984516  0
H  H14  1  0.39782752  0.03690680  0.22970992  1  0.069582  0  0.107717  0.109634  0  0.986684  0
H  H15  1  0.61240532  0.96332714  0.77585827  1  0.074716  0  0.108115  0.11039  0  0.984767  0
H  H16  1  0.08685577  0.43530444  0.66705587  1  0.040494  0  0.102768  0.102657  0  0.993296  0
H  H17  1  0.85396039  0.56340587  0.32800270  1  0.058962  0  0.102991  0.103027  0  0.994036  0
H  H18  1  0.58642183  0.06472037  0.83294967  1  0.040424  0  0.102767  0.102594  0  0.993101  0
H  H19  1  0.35417479  0.93659478  0.17201501  1  0.059169  0  0.102984  0.103141  0  0.994013  0
H  H20  1  0.68390044  0.08417484  0.45620768  1  0.051122  0  0.104259  0.105441  0  0.99907  0
H  H21  1  0.33037198  0.96103842  0.57841119  1  0.070443  0  0.104446  0.10594  0  0.998886  0
H  H22  1  0.18384030  0.41586528  0.04377986  1  0.050642  0  0.104287  0.105547  0  0.998819  0
H  H23  1  0.83031236  0.53890540  0.92155873  1  0.070131  0  0.104536  0.106047  0  0.999031  0
H  H24  1  0.67528509  0.15544082  0.38449779  1  0.09754  0  0.109851  0.113597  0  1.000641  0
H  H25  1  0.33731111  0.88776887  0.64852250  1  0.079452  0  0.110997  0.114445  0  0.996136  0
H  H26  1  0.17513032  0.34462362  0.11551031  1  0.097289  0  0.109923  0.113543  0  1.000839  0
H  H27  1  0.83732570  0.61216458  0.85144553  1  0.080628  0  0.111084  0.114352  0  0.99634  0
H  H28  1  0.29817344  0.11805696  0.35089245  1  0.108904  0  0.111035  0.116088  0  0.995935  0
H  H29  1  0.71340656  0.84615906  0.62090004  1  0.12285  0  0.111882  0.116605  0  1.005212  0
H  H30  1  0.79814546  0.38189244  0.14907997  1  0.109033  0  0.111127  0.116219  0  0.995888  0
H  H31  1  0.21354121  0.65389087  0.87909690  1  0.122622  0  0.111838  0.116439  0  1.005546  0
H  H32  1  0.30757831  0.04420045  0.42057368  1  0.061575  0  0.104285  0.105646  0  0.999432  0
H  H33  1  0.70471164  0.91745006  0.54933175  1  0.070711  0  0.10457  0.106948  0  0.999029  0
H  H34  1  0.80760519  0.45575975  0.07940643  1  0.062426  0  0.104255  0.105708  0  0.999378  0
H  H35  1  0.20475462  0.58258565  0.95065234  1  0.070455  0  0.104582  0.106987  0  0.999191  0
H  H36  1  0.74004501  0.29839628  0.43760406  1  0.060637  0  0.105771  0.077966  0  0.960133  0
H  H37  1  0.67399712  0.37832353  0.43831766  1  0.037057  0  0.096461  0.059719  0  1.006664  0
H  H38  1  0.61326191  0.30028669  0.53152815  1  0.028019  0  0.088876  0.082123  0  0.974026  0
H  H39  1  0.54512497  0.37956838  0.53118602  1  0.026167  0  0.090384  0.085185  0  0.980637  0
H  H40  1  0.31183346  0.35139441  0.45412329  1  0.010981  0  0.084753  0.113102  0  1.019235  0
H  H41  1  0.24435981  0.31061440  0.50821906  1  0.057194  0  0.08649  0.120253  0  1.022575  0
H  H42  1  0.37640668  0.27166802  0.45341253  1  0.021989  0  0.083365  0.108195  0  1.00404  0
H  H43  1  0.61467745  0.61208380  0.56361466  1  0.048734  0  0.097057  0.059494  0  0.98769  0
H  H44  1  0.53813908  0.63875615  0.50228196  1  0.045401  0  0.096824  0.059744  0  0.972053  0
H  H45  1  0.72232370  0.71945179  0.59793614  1  0.035024  0  0.092504  0.087919  0  0.990495  0
H  H46  1  0.65860406  0.74666824  0.53680970  1  0.049999  0  0.091802  0.086612  0  0.974811  0
H  H47  1  0.29431979  0.72049066  0.55035932  1  0.019578  0  0.086987  0.118159  0  0.994852  0
H  H48  1  0.38398750  0.76899828  0.60669809  1  0.039231  0  0.087854  0.12195  0  1.033163  0
H  H49  1  0.35499490  0.68794247  0.60954183  1  0.028415  0  0.085644  0.110947  0  1.023034  0
H  H50  1  0.23989967  0.20160249  0.06240374  1  0.058796  0  0.105842  0.077967  0  0.960215  0
H  H51  1  0.17386837  0.12166948  0.06168604  1  0.037111  0  0.096442  0.059691  0  1.006776  0
H  H52  1  0.11317054  0.19970406  0.96846981  1  0.024455  0  0.088799  0.082025  0  0.974017  0
H  H53  1  0.04506402  0.12041721  0.96880541  1  0.026197  0  0.090492  0.085355  0  0.98067  0
H  H54  1  0.81168607  0.14856303  0.04583858  1  0.010308  0  0.084707  0.113118  0  1.01894  0
H  H55  1  0.74427580  0.18935099  0.99174495  1  0.056399  0  0.086391  0.119966  0  1.023452  0
H  H56  1  0.87623367  0.22830003  0.04656974  1  0.023037  0  0.083358  0.10814  0  1.004165  0
H  H57  1  0.11489637  0.88787598  0.93634706  1  0.048327  0  0.096888  0.059422  0  0.987711  0
H  H58  1  0.03826840  0.86122955  0.99768147  1  0.047043  0  0.096576  0.059396  0  0.971955  0
H  H59  1  0.22257261  0.78050216  0.90206647  1  0.032773  0  0.09264  0.088031  0  0.990493  0
H  H60  1  0.15891044  0.75331735  0.96320953  1  0.049142  0  0.091816  0.086606  0  0.975129  0
H  H61  1  0.79458688  0.77939214  0.94964667  1  0.019594  0  0.087135  0.118268  0  0.994402  0
H  H62  1  0.88431304  0.73089635  0.89331791  1  0.038016  0  0.087592  0.121386  0  1.033468  0
H  H63  1  0.85513204  0.81193243  0.89045229  1  0.027673  0  0.085641  0.110973  0  1.023032  0
H  H64  1  0.48846942  0.29325761  0.31183493  1  0.620946  0  0.353422  0.431178  0  0.853235  0
H  H65  1  0.52391188  0.71278854  0.68556356  1  0.620648  0  0.348136  0.424659  0  0.873279  0
H  H66  1  0.98849473  0.20672388  0.18819745  1  0.621896  0  0.35362  0.431448  0  0.852878  0
H  H67  1  0.02391789  0.78722465  0.81444940  1  0.620205  0  0.348047  0.424466  0  0.873391  0
C  C68  1  0.48388691  0.31498403  0.17756804  1  1.555069  0  0.26321  0.632204  0  4.117658  0
C  C69  1  0.52881367  0.68149800  0.82004849  1  1.572453  0  0.264308  0.631164  0  4.109073  0
C  C70  1  0.98410597  0.18504172  0.32243405  1  1.553886  0  0.26296  0.631635  0  4.118364  0
C  C71  1  0.02860758  0.81851630  0.67995102  1  1.572232  0  0.264453  0.63128  0  4.109032  0
C  C72  1  0.48373712  0.14981721  0.19652944  1  1.55939  0  0.279097  0.66702  0  4.069847  0
C  C73  1  0.53137589  0.84829753  0.80642921  1  1.575725  0  0.278565  0.664766  0  4.068669  0
C  C74  1  0.98356797  0.35020570  0.30347225  1  1.55899  0  0.278379  0.666076  0  4.070873  0
C  C75  1  0.03149060  0.65173092  0.69358306  1  1.575007  0  0.278536  0.66474  0  4.066865  0
C  C76  1  0.03118574  0.59055627  0.65966467  1  -0.035234  0  -0.016602  -0.032597  0  4.009759  0
C  C77  1  0.96807321  0.41146484  0.33700478  1  -0.058411  0  -0.015289  -0.030893  0  4.006562  0
C  C78  1  0.53118668  0.90946629  0.84035953  1  -0.034659  0  -0.016853  -0.032839  0  4.010892  0
C  C79  1  0.46817934  0.08854538  0.16300743  1  -0.057849  0  -0.015404  -0.031318  0  4.007262  0
C  C80  1  0.05908554  0.47907805  0.65043692  1  0.034298  0  -0.092419  -0.134012  0  4.002059  0
C  C81  1  0.88833683  0.52056604  0.34540665  1  -0.068989  0  -0.090029  -0.129751  0  4.002294  0
C  C82  1  0.55879515  0.02094419  0.84957580  1  0.034425  0  -0.092671  -0.133802  0  4.001631  0
C  C83  1  0.38855607  0.97943236  0.15461273  1  -0.069689  0  -0.090074  -0.129587  0  4.002653  0
C  C84  1  0.07298640  0.53504776  0.68217450  1  -0.103546  0  -0.088831  -0.106095  0  4.018377  0
C  C85  1  0.91499442  0.46538628  0.31335181  1  -0.000435  0  -0.089013  -0.107252  0  4.018475  0
C  C86  1  0.57268037  0.96498101  0.81782643  1  -0.103519  0  -0.08871  -0.106357  0  4.01877  0
C  C87  1  0.41525779  0.03461598  0.18666721  1  -0.000679  0  -0.088782  -0.106985  0  4.018911  0
C  C88  1  0.98397276  0.58962643  0.60624788  1  -0.001486  0  -0.091553  -0.164899  0  3.962682  0
C  C89  1  0.98548249  0.41280075  0.39165226  1  0.018038  0  -0.090361  -0.166384  0  3.971198  0
C  C90  1  0.48421861  0.91038478  0.89378547  1  -0.002202  0  -0.091324  -0.16451  0  3.963  0
C  C91  1  0.48543875  0.08721388  0.10836059  1  0.019841  0  -0.090206  -0.166106  0  3.971869  0
C  C92  1  0.97250141  0.53307434  0.57223009  1  -0.018773  0  -0.005676  0.041466  0  3.944321  0
C  C93  1  0.94195630  0.46756498  0.42594796  1  -0.039192  0  -0.005809  0.038861  0  3.950932  0
C  C94  1  0.47258301  0.96693501  0.92779674  1  -0.020154  0  -0.005638  0.041494  0  3.944243  0
C  C95  1  0.44196885  0.03244268  0.07407143  1  -0.040831  0  -0.00622  0.038275  0  3.951155  0
C  C96  1  0.00837859  0.47674463  0.59584818  1  -0.021116  0  -0.008744  0.092763  0  4.045102  0
C  C97  1  0.90085973  0.52289759  0.40151636  1  0.032096  0  -0.00912  0.093528  0  4.044356  0
C  C98  1  0.50825470  0.02326974  0.90416819  1  -0.020499  0  -0.00889  0.092738  0  4.044977  0
C  C99  1  0.40095870  0.97710213  0.09850519  1  0.032071  0  -0.00935  0.093108  0  4.045196  0
C  C100  1  0.93225361  0.52937146  0.51547432  1  -0.073465  0  -0.005522  -0.052594  0  3.917411  0
C  C101  1  0.94115164  0.47038516  0.48354237  1  0.014238  0  -0.006293  -0.054472  0  3.92098  0
C  C102  1  0.43232815  0.97062958  0.98454836  1  -0.071798  0  -0.005521  -0.052755  0  3.9178  0
C  C103  1  0.44116367  0.02962049  0.01647583  1  0.015019  0  -0.006102  -0.053693  0  3.920007  0
C  C104  1  0.94627035  0.41516819  0.51111169  1  0.490318  0  0.082785  0.214695  0  4.050874  0
C  C105  1  0.88368411  0.58307882  0.48846862  1  0.464007  0  0.078691  0.20973  0  4.052211  0
C  C106  1  0.44618954  0.08484230  0.98890090  1  0.48956  0  0.08267  0.214263  0  4.051599  0
C  C107  1  0.38380652  0.91691892  0.01154951  1  0.464274  0  0.078604  0.209628  0  4.052754  0
C  C108  1  0.98414207  0.41870535  0.56457475  1  -0.017996  0  -0.102357  -0.257812  0  4.013689  0
C  C109  1  0.86781699  0.57943319  0.43425679  1  -0.001919  0  -0.102787  -0.256025  0  4.01784  0
C  C110  1  0.48394440  0.08130642  0.93543797  1  -0.018301  0  -0.10222  -0.257974  0  4.014555  0
C  C111  1  0.36794682  0.92056443  0.06576151  1  -0.00252  0  -0.102598  -0.255966  0  4.018159  0
C  C112  1  0.81754539  0.09115010  0.43266772  1  -0.006731  0  -0.083478  -0.128808  0  3.946322  0
C  C113  1  0.19601547  0.93531062  0.58742349  1  -0.040614  0  -0.083407  -0.129629  0  3.945454  0
C  C114  1  0.31747281  0.40888443  0.06732448  1  -0.004649  0  -0.083608  -0.129155  0  3.945507  0
C  C115  1  0.69599931  0.56465621  0.91255131  1  -0.039983  0  -0.083477  -0.129957  0  3.945745  0
C  C116  1  0.81272476  0.13098034  0.39310789  1  -0.024862  0  -0.07938  -0.088237  0  3.986746  0
C  C117  1  0.20001457  0.89480073  0.62646570  1  -0.033219  0  -0.078239  -0.087239  0  3.988416  0
C  C118  1  0.31261036  0.36906231  0.10689379  1  -0.026686  0  -0.079505  -0.088057  0  3.986398  0
C  C119  1  0.70004342  0.60515940  0.87350717  1  -0.034172  0  -0.078465  -0.087008  0  3.9891  0
C  C120  1  0.98655382  0.14102180  0.36389931  1  -0.01608  0  -0.013737  -0.041253  0  3.970033  0
C  C121  1  0.02588644  0.86261689  0.63855180  1  -0.031676  0  -0.01187  -0.041826  0  3.967702  0
C  C122  1  0.48644429  0.35899509  0.13609486  1  -0.016785  0  -0.013641  -0.04135  0  3.97036  0
C  C123  1  0.52598446  0.63737811  0.86143096  1  -0.031276  0  -0.011988  -0.042438  0  3.968445  0
C  C124  1  0.16489179  0.10983708  0.37416838  1  -0.076251  0  -0.080138  -0.08965  0  3.986626  0
C  C125  1  0.84716077  0.87155678  0.61097808  1  -0.018243  0  -0.07765  -0.085168  0  3.982572  0
C  C126  1  0.66485245  0.39013934  0.12581848  1  -0.076516  0  -0.080174  -0.089571  0  3.98651  0
C  C127  1  0.34725670  0.62846448  0.88900960  1  -0.017813  0  -0.07753  -0.084578  0  3.98258  0
C  C128  1  0.17015681  0.06925001  0.41305945  1  0.017261  0  -0.081996  -0.12689  0  3.948605  0
C  C129  1  0.84246778  0.91131881  0.57146795  1  -0.040383  0  -0.084492  -0.133034  0  3.950043  0
C  C130  1  0.67014601  0.43073244  0.08692351  1  0.015278  0  -0.081775  -0.126945  0  3.947932  0
C  C131  1  0.34250086  0.58869391  0.92851489  1  -0.040207  0  -0.084493  -0.133099  0  3.950139  0
C  C132  1  0.99668757  0.05963428  0.44332155  1  0.086868  0  0.002796  0.144617  0  4.109582  0
C  C133  1  0.01715979  0.94397268  0.55903332  1  0.083166  0  0.003238  0.145482  0  4.112102  0
C  C134  1  0.49666935  0.44037222  0.05667038  1  0.087942  0  0.002845  0.144775  0  4.109437  0
C  C135  1  0.51713649  0.55601693  0.94094772  1  0.082498  0  0.003287  0.145579  0  4.112428  0
C  C136  1  0.00348826  0.01923784  0.48374519  1  -0.153088  0  -0.046269  -0.110865  0  4.118291  0
C  C137  1  0.01162131  0.98455668  0.51873634  1  -0.212987  0  -0.042983  -0.105104  0  4.116946  0
C  C138  1  0.50348399  0.48076494  0.01624577  1  -0.151034  0  -0.046351  -0.111011  0  4.117751  0
C  C139  1  0.51159979  0.51544207  0.98125138  1  -0.215326  0  -0.043151  -0.105212  0  4.116736  0
C  C140  1  0.72023539  0.34231578  0.46351196  1  0.392783  0  -0.068412  0.029664  0  3.896123  0
C  C141  1  0.56267301  0.33512939  0.50573215  1  -0.011351  0  -0.172751  -0.139582  0  4.005889  0
C  C142  1  0.36315207  0.31598740  0.47914082  1  -0.068526  0  -0.247741  -0.351546  0  3.972047  0
C  C143  1  0.64310737  0.64747999  0.53607939  1  0.374851  0  -0.067631  0.03465  0  3.893998  0
C  C144  1  0.61689752  0.71257857  0.56423826  1  -0.037642  0  -0.169061  -0.132997  0  3.98916  0
C  C145  1  0.40114227  0.72324255  0.58369056  1  -0.062269  0  -0.246255  -0.357989  0  3.944233  0
C  C146  1  0.22012397  0.15768252  0.03648999  1  0.394139  0  -0.068458  0.02971  0  3.896722  0
C  C147  1  0.06256009  0.16485717  0.99425834  1  -0.007905  0  -0.1727  -0.139631  0  4.005903  0
C  C148  1  0.86302648  0.18398438  0.02083172  1  -0.068629  0  -0.247667  -0.351227  0  3.972233  0
C  C149  1  0.14330352  0.85249407  0.96390143  1  0.374829  0  -0.067425  0.035065  0  3.893886  0
C  C150  1  0.11716795  0.78737808  0.93576406  1  -0.035698  0  -0.169291  -0.133358  0  3.988918  0
C  C151  1  0.90139746  0.77666324  0.91631734  1  -0.059563  0  -0.246008  -0.357438  0  3.943894  0
O  O152  1  0.65573769  0.17328863  0.20749098  1  -1.255218  0  -0.231576  -0.58658  0  2.302747  0
O  O153  1  0.36049402  0.82396786  0.79523041  1  -1.256107  0  -0.231352  -0.588241  0  2.32268  0
O  O154  1  0.15551439  0.32658596  0.29271088  1  -1.255398  0  -0.231056  -0.585908  0  2.302938  0
O  O155  1  0.86070509  0.67619910  0.70464257  1  -1.257058  0  -0.231511  -0.588658  0  2.322452  0
O  O156  1  0.31277563  0.29812317  0.19353216  1  -1.255639  0  -0.23925  -0.596544  0  2.343695  0
O  O157  1  0.69958084  0.69693409  0.80284470  1  -1.256135  0  -0.236285  -0.594717  0  2.358319  0
O  O158  1  0.81308062  0.20217143  0.30662589  1  -1.254489  0  -0.239111  -0.596499  0  2.343231  0
O  O159  1  0.19935535  0.80293672  0.69706689  1  -1.255468  0  -0.236689  -0.59523  0  2.359039  0
O  O160  1  0.31607329  0.17425726  0.21102053  1  -1.256961  0  -0.230345  -0.590931  0  2.334736  0
O  O161  1  0.70020510  0.82491974  0.79167316  1  -1.262866  0  -0.23085  -0.592237  0  2.333337  0
O  O162  1  0.81590392  0.32593291  0.28875455  1  -1.255579  0  -0.230264  -0.590986  0  2.33523  0
O  O163  1  0.20035297  0.67498402  0.70847469  1  -1.261734  0  -0.230972  -0.592048  0  2.331852  0
O  O164  1  0.15444918  0.20258726  0.30669297  1  -1.252927  0  -0.236949  -0.592897  0  2.36173  0
O  O165  1  0.85846833  0.79906493  0.69419897  1  -1.258402  0  -0.237627  -0.595709  0  2.370642  0
O  O166  1  0.65414031  0.29718588  0.19316045  1  -1.251145  0  -0.237286  -0.593516  0  2.36078  0
O  O167  1  0.35877529  0.70112519  0.80589909  1  -1.258171  0  -0.237557  -0.595705  0  2.371323  0
O  O168  1  0.48586322  0.26065317  0.28224287  1  -1.422914  0  -0.448311  -0.989122  0  2.19255  0
O  O169  1  0.52701969  0.74162320  0.71774922  1  -1.426129  0  -0.449939  -0.989289  0  2.20329  0
O  O170  1  0.98585392  0.23936942  0.21775607  1  -1.423825  0  -0.448535  -0.989561  0  2.192623  0
O  O171  1  0.02703771  0.75839734  0.78225941  1  -1.425822  0  -0.449893  -0.98929  0  2.203768  0
O  O172  1  0.91846850  0.35609837  0.48526959  1  -1.073756  0  -0.200397  -0.242777  0  2.558591  0
O  O173  1  0.84668838  0.64106637  0.51590835  1  -1.064317  0  -0.209828  -0.247862  0  2.518715  0
O  O174  1  0.41834771  0.14390486  0.01474947  1  -1.073596  0  -0.200304  -0.242654  0  2.558928  0
O  O175  1  0.34684307  0.85892972  0.98411074  1  -1.065806  0  -0.209648  -0.247719  0  2.519225  0
