# generated using pymatgen
data_Zn4H12C44O21F8
_symmetry_space_group_name_H-M   'P 1'
_cell_length_a   23.68107512
_cell_length_b   23.68300557
_cell_length_c   23.68096672
_cell_angle_alpha   65.76829164
_cell_angle_beta   72.86319280
_cell_angle_gamma   107.14923618
_symmetry_Int_Tables_number   1
_chemical_formula_structural   Zn4H12C44O21F8
_chemical_formula_sum   'Zn8 H24 C88 O42 F16'
_cell_volume   10170.90007982
_cell_formula_units_Z   2
loop_
 _symmetry_equiv_pos_site_id
 _symmetry_equiv_pos_as_xyz
  1  'x, y, z'
loop_
 _atom_site_type_symbol
 _atom_site_label
 _atom_site_symmetry_multiplicity
 _atom_site_fract_x
 _atom_site_fract_y
 _atom_site_fract_z
 _atom_site_occupancy
 _atom_site_pbe_bader_charge
 _atom_site_pbe_bader_spin_density
 _atom_site_pbe_cm5_charge
 _atom_site_pbe_ddec_charge
 _atom_site_pbe_ddec_spin_density
 _atom_site_pbe_ddec_sum_bond_order
 _atom_site_pbe_magmom
Zn  Zn0  1  0.05679774  0.95635858  0.48462178  1  1.324983  0  0.684453  0.981999  0  2.328468  0
Zn  Zn1  1  0.05680839  0.10043436  0.45857864  1  1.321137  0  0.684627  0.982375  0  2.328294  0
Zn  Zn2  1  0.94318612  0.98460472  0.45636842  1  1.325037  0  0.684584  0.982219  0  2.328304  0
Zn  Zn3  1  0.94320026  0.95858277  0.60043639  1  1.32129  0  0.684513  0.982154  0  2.328543  0
Zn  Zn4  1  0.94097602  0.54140759  0.01538894  1  1.323503  0  0.684507  0.982169  0  2.328503  0
Zn  Zn5  1  0.05902553  0.51538529  0.04142692  1  1.323238  0  0.684493  0.982088  0  2.328244  0
Zn  Zn6  1  0.94098171  0.39956285  0.04362981  1  1.323506  0  0.68457  0.982212  0  2.32849  0
Zn  Zn7  1  0.05901270  0.54363246  0.89956707  1  1.323536  0  0.684522  0.982226  0  2.328378  0
H  H8  1  0.93331989  0.72729605  0.16021631  1  0.101372  0  0.121187  0.152758  0  0.970435  0
H  H9  1  0.06667797  0.66022600  0.22734018  1  0.101298  0  0.121315  0.152799  0  0.970289  0
H  H10  1  0.91332349  0.81299249  0.29706273  1  0.110094  0  0.120347  0.151333  0  0.971277  0
H  H11  1  0.08666796  0.79706909  0.31301873  1  0.108696  0  0.120294  0.151338  0  0.971126  0
H  H12  1  0.06669232  0.40643548  0.70601822  1  0.10962  0  0.121204  0.152867  0  0.970539  0
H  H13  1  0.93331723  0.20600383  0.90645902  1  0.109334  0  0.121388  0.152913  0  0.970313  0
H  H14  1  0.08667926  0.28959402  0.60033910  1  0.131363  0  0.120233  0.151205  0  0.971382  0
H  H15  1  0.91330699  0.10032844  0.78958206  1  0.131507  0  0.120301  0.151334  0  0.971247  0
H  H16  1  0.61008018  0.39967252  0.18699812  1  0.110222  0  0.120256  0.151302  0  0.971183  0
H  H17  1  0.61006843  0.21039959  0.20292173  1  0.111185  0  0.120213  0.151111  0  0.971367  0
H  H18  1  0.38753943  0.29399378  0.27266435  1  0.111443  0  0.121394  0.152923  0  0.970248  0
H  H19  1  0.38754491  0.09355674  0.33974307  1  0.100328  0  0.121243  0.1529  0  0.970407  0
H  H20  1  0.38994376  0.68699259  0.89967517  1  0.109852  0  0.120256  0.151249  0  0.971304  0
H  H21  1  0.38990331  0.70291261  0.71040791  1  0.110968  0  0.120264  0.151363  0  0.970984  0
H  H22  1  0.61247257  0.77266857  0.79399430  1  0.111532  0  0.121343  0.152906  0  0.970248  0
H  H23  1  0.61244069  0.83976216  0.59355134  1  0.100335  0  0.121387  0.152908  0  0.970283  0
H  H24  1  0.83781645  0.73878241  0.80764644  1  0.635568  0  0.348689  0.384974  0  0.847541  0
H  H25  1  0.04642812  0.64549144  0.69232999  1  0.634723  0  0.348607  0.384755  0  0.847858  0
H  H26  1  0.95355385  0.76120278  0.90097268  1  0.627644  0  0.348824  0.385236  0  0.847358  0
H  H27  1  0.16217315  0.85451897  0.59906015  1  0.617043  0  0.348644  0.384685  0  0.848069  0
H  H28  1  0.83781953  0.09904946  0.35448492  1  0.617563  0  0.348879  0.385352  0  0.847268  0
H  H29  1  0.04644229  0.40094310  0.26124329  1  0.627018  0  0.348687  0.385028  0  0.847552  0
H  H30  1  0.95356007  0.19236868  0.14545174  1  0.635378  0  0.348824  0.385129  0  0.847437  0
H  H31  1  0.16217950  0.30765110  0.23880106  1  0.636243  0  0.348832  0.385213  0  0.847293  0
C  C32  1  0.17877325  0.08938333  0.41059949  1  1.542508  0  0.228352  0.645556  0  4.157901  0
C  C33  1  0.99999476  0.13718980  0.36277571  1  1.561811  0  0.23239  0.607127  0  4.156868  0
C  C34  1  0.99997480  0.90942153  0.40947448  1  1.610793  0  0.227816  0.63796  0  4.161681  0
C  C35  1  0.82122078  0.91060851  0.58938473  1  1.541421  0  0.228209  0.64542  0  4.158186  0
C  C36  1  0.00000549  0.86279662  0.63721306  1  1.562949  0  0.232192  0.607147  0  4.156896  0
C  C37  1  0.00001120  0.09055937  0.59053977  1  1.613852  0  0.227895  0.638235  0  4.160837  0
C  C38  1  0.99999418  0.58936479  0.08940978  1  1.54936  0  0.22839  0.645829  0  4.157642  0
C  C39  1  0.00001412  0.36280011  0.13720983  1  1.558506  0  0.232397  0.607277  0  4.156676  0
C  C40  1  0.81889492  0.40944223  0.09054192  1  1.600159  0  0.227707  0.637855  0  4.161286  0
C  C41  1  0.00000485  0.41061222  0.91061397  1  1.551511  0  0.22836  0.64566  0  4.157729  0
C  C42  1  0.99998020  0.63720072  0.86280193  1  1.558392  0  0.232423  0.607248  0  4.157028  0
C  C43  1  0.18110158  0.59054558  0.90946261  1  1.600903  0  0.227766  0.637858  0  4.161366  0
C  C44  1  0.99999505  0.80451761  0.69548550  1  0.072637  0  0.000863  -0.043511  0  3.914729  0
C  C45  1  0.99998896  0.69547539  0.80452759  1  0.095739  0  0.000831  -0.043503  0  3.914655  0
C  C46  1  0.95756138  0.77815760  0.76600956  1  -0.014327  0  -0.001825  -0.087064  0  3.963595  0
C  C47  1  0.04415724  0.72356796  0.73400048  1  -0.011097  0  -0.001575  -0.086967  0  3.963367  0
C  C48  1  0.95582133  0.72183495  0.82059586  1  -0.06487  0  -0.001643  -0.086831  0  3.963478  0
C  C49  1  0.04243037  0.77642690  0.67941252  1  -0.022677  0  -0.001618  -0.08681  0  3.963441  0
C  C50  1  0.99999155  0.19546974  0.30451845  1  0.073095  0  0.000717  -0.043618  0  3.915239  0
C  C51  1  0.99999919  0.30451868  0.19548586  1  0.096348  0  0.000763  -0.043467  0  3.914912  0
C  C52  1  0.95756248  0.17940940  0.27641074  1  -0.023309  0  -0.001627  -0.086912  0  3.96403  0
C  C53  1  0.04416564  0.32057829  0.22185659  1  -0.064866  0  -0.001597  -0.086938  0  3.964168  0
C  C54  1  0.95583004  0.23399720  0.22356228  1  -0.011107  0  -0.001869  -0.087335  0  3.963722  0
C  C55  1  0.04243209  0.26599244  0.27817306  1  -0.013423  0  -0.001688  -0.086937  0  3.963633  0
C  C56  1  0.00000188  0.62687604  0.12690714  1  0.1219  0  -0.030658  -0.268112  0  3.938756  0
C  C57  1  0.96348769  0.66433155  0.12739348  1  0.483162  0  0.114644  0.315083  0  4.054452  0
C  C58  1  0.96249921  0.69930123  0.16202786  1  0.076704  0  -0.095959  -0.279583  0  3.936159  0
C  C59  1  0.00000309  0.69848789  0.19849648  1  0.099727  0  0.011978  0.202817  0  4.133374  0
C  C60  1  0.03750049  0.66201996  0.19933489  1  0.075051  0  -0.095959  -0.279358  0  3.935732  0
C  C61  1  0.03651676  0.62737814  0.16436934  1  0.48485  0  0.114427  0.314612  0  4.054162  0
C  C62  1  0.00000284  0.73402817  0.23402198  1  0.007496  0  -0.033602  -0.092787  0  4.078059  0
C  C63  1  0.00000018  0.76468585  0.26469030  1  -0.392284  0  -0.030892  -0.087825  0  4.074831  0
C  C64  1  0.99999535  0.80023599  0.30024951  1  0.1817  0  0.012617  0.20142  0  4.137686  0
C  C65  1  0.95157315  0.82270824  0.31347231  1  0.03489  0  -0.09604  -0.279813  0  3.934869  0
C  C66  1  0.95243271  0.85729179  0.34854401  1  0.480353  0  0.11788  0.317702  0  4.044888  0
C  C67  1  0.99998501  0.87191679  0.37196104  1  0.032984  0  -0.026587  -0.258869  0  3.921037  0
C  C68  1  0.04754374  0.84851628  0.35734160  1  0.479846  0  0.117975  0.317795  0  4.045579  0
C  C69  1  0.04840999  0.81345987  0.32274148  1  0.037123  0  -0.09611  -0.279907  0  3.935021  0
C  C70  1  0.00000716  0.37310420  0.87311309  1  0.10347  0  -0.030375  -0.267587  0  3.938537  0
C  C71  1  0.03653023  0.40911190  0.79914664  1  0.496565  0  0.114415  0.314712  0  4.054863  0
C  C72  1  0.03751374  0.37546113  0.76319257  1  0.063964  0  -0.095878  -0.279703  0  3.936778  0
C  C73  1  0.00000145  0.30150055  0.80151798  1  0.111146  0  0.011982  0.203147  0  4.133156  0
C  C74  1  0.96250336  0.26317947  0.87548219  1  0.064386  0  -0.096087  -0.279589  0  3.936022  0
C  C75  1  0.96349167  0.29913761  0.90912878  1  0.49675  0  0.114389  0.314483  0  4.054776  0
C  C76  1  0.99999663  0.26597050  0.76598404  1  0.008122  0  -0.03371  -0.093109  0  4.07773  0
C  C77  1  0.99998883  0.23530441  0.73531684  1  -0.396454  0  -0.030668  -0.087594  0  4.074368  0
C  C78  1  0.99999483  0.19975383  0.69975999  1  0.108253  0  0.01254  0.201589  0  4.137612  0
C  C79  1  0.04841970  0.23494672  0.62886492  1  0.05063  0  -0.095895  -0.279841  0  3.935123  0
C  C80  1  0.04755502  0.19902238  0.59513573  1  0.473588  0  0.117865  0.317856  0  4.04551  0
C  C81  1  0.99999951  0.12807104  0.62804925  1  0.048002  0  -0.026676  -0.258991  0  3.920785  0
C  C82  1  0.95244007  0.09514149  0.69900109  1  0.473744  0  0.117874  0.317639  0  4.045101  0
C  C83  1  0.95157817  0.12886137  0.73493832  1  0.05086  0  -0.096012  -0.280012  0  3.934996  0
C  C84  1  0.74387615  0.37193604  0.12805609  1  0.036612  0  -0.02651  -0.258845  0  3.9208  0
C  C85  1  0.70584882  0.40486369  0.14268284  1  0.572971  0  0.117901  0.317679  0  4.045555  0
C  C86  1  0.63619405  0.37113824  0.17727341  1  -0.050516  0  -0.095984  -0.279789  0  3.93514  0
C  C87  1  0.60048326  0.30024076  0.19975181  1  0.178712  0  0.012527  0.201361  0  4.137732  0
C  C88  1  0.63618704  0.26505018  0.18652593  1  0.064004  0  -0.095845  -0.279509  0  3.93481  0
C  C89  1  0.70584120  0.30098001  0.15146237  1  0.486405  0  0.117857  0.317751  0  4.045381  0
C  C90  1  0.52937574  0.26468536  0.23530638  1  -0.363692  0  -0.030798  -0.087746  0  4.074535  0
C  C91  1  0.46804086  0.23402430  0.26596947  1  -0.025252  0  -0.033666  -0.092988  0  4.077746  0
C  C92  1  0.39697711  0.19849345  0.30149559  1  0.081402  0  0.012012  0.203062  0  4.133088  0
C  C93  1  0.36133262  0.23681689  0.30065974  1  0.068503  0  -0.096123  -0.279599  0  3.935647  0
C  C94  1  0.29172661  0.20085919  0.33562896  1  0.444532  0  0.114484  0.314678  0  4.054626  0
C  C95  1  0.25378092  0.12689105  0.37308506  1  0.163912  0  -0.030586  -0.267771  0  3.938409  0
C  C96  1  0.29173658  0.09088186  0.37258117  1  0.489212  0  0.114589  0.314974  0  4.054554  0
C  C97  1  0.36134218  0.12453327  0.33794559  1  0.083203  0  -0.095915  -0.279794  0  3.936561  0
C  C98  1  0.25611788  0.62804502  0.87195527  1  0.036853  0  -0.026642  -0.258748  0  3.921037  0
C  C99  1  0.29415903  0.64267576  0.90487919  1  0.572662  0  0.117899  0.317658  0  4.046004  0
C  C100  1  0.36381277  0.67727279  0.87114548  1  -0.051147  0  -0.096061  -0.279882  0  3.935439  0
C  C101  1  0.39950798  0.69974654  0.80024984  1  0.178537  0  0.012577  0.201446  0  4.137908  0
C  C102  1  0.36379233  0.68652819  0.76505818  1  0.065185  0  -0.096058  -0.27992  0  3.935017  0
C  C103  1  0.29413659  0.65145609  0.80099363  1  0.485604  0  0.117958  0.317731  0  4.045547  0
C  C104  1  0.47061891  0.73530278  0.76468843  1  -0.363822  0  -0.030615  -0.087546  0  4.074822  0
C  C105  1  0.53194806  0.76596859  0.73403189  1  -0.02524  0  -0.033837  -0.093183  0  4.07823  0
C  C106  1  0.60301470  0.80150191  0.69849335  1  0.082348  0  0.012075  0.203142  0  4.133203  0
C  C107  1  0.63866627  0.80067178  0.73681633  1  0.068121  0  -0.096115  -0.27967  0  3.936091  0
C  C108  1  0.70827021  0.83564012  0.70086213  1  0.445587  0  0.114485  0.314781  0  4.05464  0
C  C109  1  0.74621323  0.87310360  0.62689123  1  0.163094  0  -0.030584  -0.267975  0  3.938983  0
C  C110  1  0.70824876  0.87260096  0.59088040  1  0.489939  0  0.114333  0.314578  0  4.054386  0
C  C111  1  0.63864525  0.83796489  0.62453039  1  0.082316  0  -0.095911  -0.279404  0  3.936008  0
C  C112  1  0.91843922  0.81354676  0.78551878  1  1.579276  0  0.226413  0.569173  0  4.17665  0
C  C113  1  0.09904833  0.70394441  0.71450385  1  1.573888  0  0.226445  0.56922  0  4.176451  0
C  C114  1  0.90092277  0.68644601  0.89510510  1  1.585706  0  0.226448  0.569124  0  4.176443  0
C  C115  1  0.08155315  0.79604379  0.60490378  1  1.571546  0  0.226316  0.568731  0  4.176725  0
C  C116  1  0.91843423  0.10490394  0.29600902  1  1.573063  0  0.226787  0.569433  0  4.176089  0
C  C117  1  0.09907154  0.39508282  0.18648470  1  1.586903  0  0.226743  0.569325  0  4.176818  0
C  C118  1  0.90093777  0.21450647  0.20393103  1  1.574554  0  0.226471  0.569232  0  4.176298  0
C  C119  1  0.08155595  0.28547806  0.31357676  1  1.578903  0  0.226496  0.569442  0  4.17604  0
O  O120  1  0.00000026  0.99999779  0.50000116  1  -1.234455  0  -0.576827  -1.049967  0  2.540886  0
O  O121  1  0.14993786  0.03085228  0.41674818  1  -1.155161  0  -0.313246  -0.54387  0  2.32453  0
O  O122  1  0.05131783  0.15360987  0.37186400  1  -1.152092  0  -0.295713  -0.525681  0  2.346594  0
O  O123  1  0.97500278  0.95126980  0.39666780  1  -1.146294  0  -0.308776  -0.535956  0  2.332837  0
O  O124  1  0.14995311  0.11908529  0.43328403  1  -1.148484  0  -0.313336  -0.544042  0  2.324456  0
O  O125  1  0.02494643  0.89661515  0.45133329  1  -1.146236  0  -0.308879  -0.53597  0  2.332348  0
O  O126  1  0.94867314  0.07679060  0.39766292  1  -1.154834  0  -0.295655  -0.525696  0  2.346253  0
O  O127  1  0.85003959  0.91675489  0.53085237  1  -1.153668  0  -0.313245  -0.54388  0  2.324334  0
O  O128  1  0.94868373  0.87187699  0.65363740  1  -1.152793  0  -0.295576  -0.525639  0  2.346375  0
O  O129  1  0.85005165  0.93328846  0.61909008  1  -1.14884  0  -0.31324  -0.543858  0  2.324546  0
O  O130  1  0.05132449  0.89768829  0.57681562  1  -1.154286  0  -0.295573  -0.525643  0  2.346485  0
O  O131  1  0.02498192  0.12832885  0.52371481  1  -1.147256  0  -0.308944  -0.536145  0  2.332168  0
O  O132  1  0.97504667  0.02374119  0.62831150  1  -1.146447  0  -0.308764  -0.536057  0  2.332763  0
O  O133  1  0.00000030  0.49999790  0.00000313  1  -1.237703  0  -0.576808  -1.05003  0  2.541035  0
O  O134  1  0.94760256  0.56667222  0.08326884  1  -1.149907  0  -0.313389  -0.544113  0  2.324245  0
O  O135  1  0.02553328  0.42319772  0.12813219  1  -1.152433  0  -0.295536  -0.525576  0  2.346417  0
O  O136  1  0.84794998  0.37167548  0.10334057  1  -1.147927  0  -0.308838  -0.535927  0  2.332507  0
O  O137  1  0.05238394  0.58322977  0.06672607  1  -1.148089  0  -0.313215  -0.543918  0  2.324307  0
O  O138  1  0.84794414  0.47626244  0.04868444  1  -1.155257  0  -0.308843  -0.535982  0  2.332491  0
O  O139  1  0.97449635  0.34637446  0.10231444  1  -1.15388  0  -0.295699  -0.525759  0  2.346405  0
O  O140  1  0.94762136  0.38091235  0.96913565  1  -1.150559  0  -0.313275  -0.543973  0  2.32438  0
O  O141  1  0.02549037  0.60230938  0.84637819  1  -1.153842  0  -0.295813  -0.525845  0  2.346551  0
O  O142  1  0.05238866  0.46914344  0.88091293  1  -1.150078  0  -0.313317  -0.544023  0  2.324215  0
O  O143  1  0.97447464  0.62811974  0.92320296  1  -1.152783  0  -0.295603  -0.525644  0  2.346486  0
O  O144  1  0.15205522  0.54869363  0.97628702  1  -1.15533  0  -0.308843  -0.535921  0  2.332155  0
O  O145  1  0.15204444  0.60335277  0.87169329  1  -1.148265  0  -0.30884  -0.536007  0  2.332758  0
O  O146  1  0.85120676  0.78040580  0.81035500  1  -1.116033  0  -0.319931  -0.446301  0  2.21357  0
O  O147  1  0.94577857  0.86630425  0.78467898  1  -1.094501  0  -0.275417  -0.436751  0  2.040229  0
O  O148  1  0.09075252  0.66157071  0.68964891  1  -1.110554  0  -0.319762  -0.445977  0  2.213989  0
O  O149  1  0.15096601  0.73042395  0.71536957  1  -1.09599  0  -0.275708  -0.436979  0  2.039753  0
O  O150  1  0.90922002  0.71958141  0.92920094  1  -1.105897  0  -0.319995  -0.446576  0  2.213794  0
O  O151  1  0.84899877  0.63368644  0.92052091  1  -1.09483  0  -0.275542  -0.436741  0  2.039578  0
O  O152  1  0.14878090  0.83842404  0.57082133  1  -1.099483  0  -0.319732  -0.445753  0  2.214309  0
O  O153  1  0.05421069  0.76955053  0.57946828  1  -1.089567  0  -0.275583  -0.436729  0  2.039621  0
O  O154  1  0.85120402  0.07081431  0.33838678  1  -1.100016  0  -0.320173  -0.446707  0  2.213748  0
O  O155  1  0.94577775  0.07947993  0.26951463  1  -1.090952  0  -0.275674  -0.43687  0  2.039339  0
O  O156  1  0.09077732  0.42917236  0.21962642  1  -1.106973  0  -0.32001  -0.446412  0  2.213893  0
O  O157  1  0.15099159  0.42050674  0.13372438  1  -1.094187  0  -0.27568  -0.436887  0  2.040053  0
O  O158  1  0.90922926  0.18966349  0.16154293  1  -1.111264  0  -0.320041  -0.446463  0  2.213721  0
O  O159  1  0.84901944  0.21535158  0.23042238  1  -1.096621  0  -0.275551  -0.436719  0  2.039381  0
O  O160  1  0.14878449  0.31033788  0.28043698  1  -1.11666  0  -0.319966  -0.446535  0  2.213752  0
O  O161  1  0.05421207  0.28461214  0.36635743  1  -1.094927  0  -0.275666  -0.437002  0  2.039081  0
F  F162  1  0.92865272  0.66873556  0.09100360  1  -0.637062  0  -0.091229  -0.126296  0  1.346598  0
F  F163  1  0.07134484  0.59098853  0.16880083  1  -0.637332  0  -0.091188  -0.126227  0  1.34634  0
F  F164  1  0.90359783  0.87569221  0.36188428  1  -0.619139  0  -0.087525  -0.121305  0  1.343798  0
F  F165  1  0.09636202  0.86184534  0.37577475  1  -0.618592  0  -0.087371  -0.121222  0  1.344233  0
F  F166  1  0.07138023  0.48033058  0.75989672  1  -0.641788  0  -0.091281  -0.126297  0  1.346607  0
F  F167  1  0.92866155  0.25989113  0.98034663  1  -0.64188  0  -0.09117  -0.12617  0  1.346561  0
F  F168  1  0.09638753  0.23450415  0.52790554  1  -0.619743  0  -0.087463  -0.121288  0  1.343902  0
F  F169  1  0.90360586  0.02791242  0.73446206  1  -0.620066  0  -0.087437  -0.121153  0  1.343829  0
F  F170  1  0.73760141  0.47209814  0.12427343  1  -0.619485  0  -0.087394  -0.121201  0  1.344028  0
F  F171  1  0.73759117  0.26549956  0.13811297  1  -0.620741  0  -0.087503  -0.121318  0  1.343952  0
F  F172  1  0.25975430  0.24010130  0.33120887  1  -0.636624  0  -0.091216  -0.126284  0  1.34659  0
F  F173  1  0.25977221  0.01966364  0.40895505  1  -0.643347  0  -0.091371  -0.126405  0  1.346526  0
F  F174  1  0.26242542  0.62425851  0.97212142  1  -0.619039  0  -0.087362  -0.121183  0  1.344194  0
F  F175  1  0.26237170  0.63810492  0.76551692  1  -0.6208  0  -0.08742  -0.121241  0  1.344092  0
F  F176  1  0.74025431  0.83121906  0.74010199  1  -0.636763  0  -0.091194  -0.126261  0  1.346643  0
F  F177  1  0.74021447  0.90899255  0.51965974  1  -0.643511  0  -0.091214  -0.126257  0  1.346326  0
