# generated using pymatgen
data_NaH16C6S2NO3
_symmetry_space_group_name_H-M   'P 1'
_cell_length_a   5.74656694
_cell_length_b   13.94553497
_cell_length_c   14.74151047
_cell_angle_alpha   108.11815754
_cell_angle_beta   90.02904025
_cell_angle_gamma   101.87111846
_symmetry_Int_Tables_number   1
_chemical_formula_structural   NaH16C6S2NO3
_chemical_formula_sum   'Na4 H64 C24 S8 N4 O12'
_cell_volume   1096.13669715
_cell_formula_units_Z   4
loop_
 _symmetry_equiv_pos_site_id
 _symmetry_equiv_pos_as_xyz
  1  'x, y, z'
loop_
 _atom_site_type_symbol
 _atom_site_label
 _atom_site_symmetry_multiplicity
 _atom_site_fract_x
 _atom_site_fract_y
 _atom_site_fract_z
 _atom_site_occupancy
 _atom_site_hle17_bader_spin_density
 _atom_site_hle17_ddec_charge
 _atom_site_hle17_ddec_spin_density
 _atom_site_hle17_ddec_sum_bond_order
 _atom_site_hle17_magmom
 _atom_site_hse06_10hf_bader_spin_density
 _atom_site_hse06_10hf_ddec_charge
 _atom_site_hse06_10hf_ddec_spin_density
 _atom_site_hse06_10hf_ddec_sum_bond_order
 _atom_site_hse06_10hf_magmom
 _atom_site_hse06_bader_spin_density
 _atom_site_hse06_ddec_charge
 _atom_site_hse06_ddec_spin_density
 _atom_site_hse06_ddec_sum_bond_order
 _atom_site_hse06_magmom
 _atom_site_pbe_bader_spin_density
 _atom_site_pbe_cm5_charge
 _atom_site_pbe_ddec_charge
 _atom_site_pbe_ddec_spin_density
 _atom_site_pbe_ddec_sum_bond_order
 _atom_site_pbe_magmom
Na  Na0  1  0.20742219  0.44050253  0.95083556  1  0  0.884977  0  0.415317  0  0  0.833625  0  0.580697  0  0  0.844288  0  0.558601  0  0  0.625383  0.825862  0  0.596457  0
Na  Na1  1  0.76688649  0.55962696  0.54921254  1  0  0.885162  0  0.415319  0  0  0.833636  0  0.580951  0  0  0.844275  0  0.558873  0  0  0.625727  0.825886  0  0.596699  0
Na  Na2  1  0.79257630  0.55949836  0.04916343  1  0  0.884942  0  0.415371  0  0  0.833618  0  0.580696  0  0  0.844281  0  0.5586  0  0  0.625378  0.825855  0  0.596457  0
Na  Na3  1  0.23311668  0.44036937  0.45078792  1  0  0.885153  0  0.415342  0  0  0.833609  0  0.580999  0  0  0.844249  0  0.558921  0  0  0.625725  0.825856  0  0.596747  0
H  H4  1  0.79023831  0.33112334  0.44380945  1  0  0.322234  0  0.967595  0  0  0.296438  0  1.050655  0  0  0.305599  0  1.041602  0  0  0.267124  0.289994  0  1.056942  0
H  H5  1  0.45925928  0.66900476  0.05629779  1  0  0.321566  0  0.968217  0  0  0.295879  0  1.051146  0  0  0.305051  0  1.042089  0  0  0.266827  0.289428  0  1.057438  0
H  H6  1  0.20976526  0.66887377  0.55619190  1  0  0.322234  0  0.967597  0  0  0.296441  0  1.050643  0  0  0.305603  0  1.041587  0  0  0.267107  0.289994  0  1.056937  0
H  H7  1  0.54074251  0.33099926  0.94370342  1  0  0.321624  0  0.968157  0  0  0.295932  0  1.051096  0  0  0.305105  0  1.042035  0  0  0.266858  0.289481  0  1.057395  0
H  H8  1  0.87788521  0.23857728  0.87572335  1  0  0.374909  0  0.942746  0  0  0.344948  0  1.012131  0  0  0.354172  0  0.998655  0  0  0.26136  0.338511  0  1.021518  0
H  H9  1  0.63946237  0.76158320  0.62440581  1  0  0.37492  0  0.944147  0  0  0.344834  0  1.012785  0  0  0.354084  0  0.999273  0  0  0.261004  0.338404  0  1.022154  0
H  H10  1  0.12211078  0.76142208  0.12427590  1  0  0.374868  0  0.942793  0  0  0.344902  0  1.012203  0  0  0.354127  0  0.998725  0  0  0.261339  0.338465  0  1.021588  0
H  H11  1  0.36052362  0.23841007  0.37559517  1  0  0.37469  0  0.944224  0  0  0.344588  0  1.013108  0  0  0.353838  0  0.999597  0  0  0.260866  0.33816  0  1.022473  0
H  H12  1  0.15041151  0.23256196  0.87420528  1  0  0.368867  0  0.957965  0  0  0.33822  0  1.02594  0  0  0.347622  0  1.012423  0  0  0.255178  0.331647  0  1.03537  0
H  H13  1  0.91799960  0.76754527  0.62579752  1  0  0.36921  0  0.957633  0  0  0.338562  0  1.025492  0  0  0.347966  0  1.011974  0  0  0.2554  0.331995  0  1.034914  0
H  H14  1  0.84958276  0.76743745  0.12579603  1  0  0.368861  0  0.957981  0  0  0.33822  0  1.025941  0  0  0.347623  0  1.012424  0  0  0.255163  0.331653  0  1.035363  0
H  H15  1  0.08199065  0.23244957  0.37420457  1  0  0.369248  0  0.957561  0  0  0.338587  0  1.025441  0  0  0.34799  0  1.011925  0  0  0.255432  0.332019  0  1.034867  0
H  H16  1  0.23287548  0.54458753  0.15090045  1  0  0.37985  0  0.941585  0  0  0.350767  0  1.006399  0  0  0.360015  0  0.993085  0  0  0.260768  0.34428  0  1.015725  0
H  H17  1  0.68809052  0.45537381  0.34922320  1  0  0.379525  0  0.941997  0  0  0.350447  0  1.006538  0  0  0.359664  0  0.993305  0  0  0.260912  0.343963  0  1.015836  0
H  H18  1  0.76712823  0.45541336  0.84909854  1  0  0.379875  0  0.941544  0  0  0.350798  0  1.006345  0  0  0.360046  0  0.993031  0  0  0.260775  0.34431  0  1.015676  0
H  H19  1  0.31191322  0.54462713  0.65077785  1  0  0.379553  0  0.941962  0  0  0.350481  0  1.006493  0  0  0.359697  0  0.993262  0  0  0.260929  0.343997  0  1.015793  0
H  H20  1  0.02442275  0.45377690  0.15112110  1  0  0.381919  0  0.938075  0  0  0.352563  0  1.003368  0  0  0.362398  0  0.98903  0  0  0.260933  0.345581  0  1.013549  0
H  H21  1  0.57051416  0.54619926  0.34887210  1  0  0.38147  0  0.938556  0  0  0.352229  0  1.003705  0  0  0.362037  0  0.98942  0  0  0.260873  0.345262  0  1.013861  0
H  H22  1  0.97557707  0.54622318  0.84887631  1  0  0.382122  0  0.937871  0  0  0.352752  0  1.003178  0  0  0.362588  0  0.988838  0  0  0.261021  0.345771  0  1.013354  0
H  H23  1  0.42948321  0.45379939  0.65112900  1  0  0.381491  0  0.938537  0  0  0.35226  0  1.003666  0  0  0.362068  0  0.98938  0  0  0.260893  0.345294  0  1.013822  0
H  H24  1  0.45351893  0.30363364  0.57730370  1  0  0.08448  0  0.965116  0  0  0.100151  0  1.028221  0  0  0.101245  0  1.027347  0  0  0.108036  0.099138  0  1.029267  0
H  H25  1  0.15037605  0.69655294  0.92248593  1  0  0.084433  0  0.963605  0  0  0.100122  0  1.026829  0  0  0.101142  0  1.026043  0  0  0.107737  0.099165  0  1.027793  0
H  H26  1  0.54649197  0.69637118  0.42269908  1  0  0.084429  0  0.965148  0  0  0.100173  0  1.028197  0  0  0.101269  0  1.027326  0  0  0.108038  0.099158  0  1.029242  0
H  H27  1  0.84961725  0.30344800  0.07751512  1  0  0.084454  0  0.963658  0  0  0.100151  0  1.026871  0  0  0.101169  0  1.026087  0  0  0.107747  0.099198  0  1.027831  0
H  H28  1  0.56774461  0.20089369  0.50276534  1  0  0.074954  0  0.944579  0  0  0.093309  0  1.00279  0  0  0.093916  0  1.002517  0  0  0.105183  0.092777  0  1.003096  0
H  H29  1  0.36694573  0.79941374  0.99718826  1  0  0.075131  0  0.944817  0  0  0.093413  0  1.003012  0  0  0.094028  0  1.002762  0  0  0.10516  0.092828  0  1.003368  0
H  H30  1  0.43225082  0.79910804  0.49723660  1  0  0.074956  0  0.944526  0  0  0.093326  0  1.002767  0  0  0.093934  0  1.002494  0  0  0.105193  0.092791  0  1.003077  0
H  H31  1  0.63304235  0.20058720  0.00281278  1  0  0.075149  0  0.94468  0  0  0.093425  0  1.002902  0  0  0.094036  0  1.00265  0  0  0.105146  0.092843  0  1.003262  0
H  H32  1  0.87296533  0.39558896  0.64796276  1  0  0.057178  0  0.936855  0  0  0.070217  0  1.005014  0  0  0.070251  0  1.005175  0  0  0.099452  0.070082  0  1.005026  0
H  H33  1  0.47861082  0.60484784  0.85218563  1  0  0.05693  0  0.935702  0  0  0.070232  0  1.003799  0  0  0.070283  0  1.003933  0  0  0.099419  0.07009  0  1.003827  0
H  H34  1  0.12704769  0.60440965  0.35203696  1  0  0.057132  0  0.936895  0  0  0.070217  0  1.005048  0  0  0.070244  0  1.005205  0  0  0.099421  0.070084  0  1.005057  0
H  H35  1  0.52138963  0.39515697  0.14781647  1  0  0.056895  0  0.935765  0  0  0.070178  0  1.003887  0  0  0.070229  0  1.004023  0  0  0.099382  0.070039  0  1.003913  0
H  H36  1  0.98417775  0.29331741  0.56761356  1  0  0.052035  0  0.935649  0  0  0.06436  0  1.004364  0  0  0.065338  0  1.00318  0  0  0.09788  0.063535  0  1.005449  0
H  H37  1  0.69143788  0.70714142  0.93289297  1  0  0.052185  0  0.93505  0  0  0.064102  0  1.004282  0  0  0.065059  0  1.003122  0  0  0.097771  0.063269  0  1.005394  0
H  H38  1  0.01582852  0.70667814  0.43238669  1  0  0.05201  0  0.93575  0  0  0.064418  0  1.004409  0  0  0.065396  0  1.003216  0  0  0.097881  0.063594  0  1.005495  0
H  H39  1  0.30855849  0.29286569  0.06710908  1  0  0.052247  0  0.93504  0  0  0.064161  0  1.00425  0  0  0.065119  0  1.003089  0  0  0.097761  0.063329  0  1.005363  0
H  H40  1  0.59719592  0.07514379  0.54120916  1  0  0.059854  0  0.942886  0  0  0.080096  0  1.000778  0  0  0.08049  0  1.000766  0  0  0.104681  0.07969  0  1.000922  0
H  H41  1  0.52257386  0.92508755  0.95870120  1  0  0.059396  0  0.943421  0  0  0.080266  0  1.000868  0  0  0.08071  0  1.000781  0  0  0.104755  0.079837  0  1.001022  0
H  H42  1  0.40279950  0.92485791  0.45879141  1  0  0.059821  0  0.94296  0  0  0.080062  0  1.000852  0  0  0.080455  0  1.000842  0  0  0.104644  0.079638  0  1.001015  0
H  H43  1  0.47742194  0.07491493  0.04129959  1  0  0.059403  0  0.943399  0  0  0.080325  0  1.00081  0  0  0.080757  0  1.00074  0  0  0.104793  0.079895  0  1.000967  0
H  H44  1  0.50827855  0.06112903  0.65300646  1  0  0.067927  0  0.959626  0  0  0.079328  0  1.032794  0  0  0.080377  0  1.03223  0  0  0.096873  0.078436  0  1.033317  0
H  H45  1  0.44766168  0.93904754  0.84684974  1  0  0.068028  0  0.959204  0  0  0.079686  0  1.032189  0  0  0.08071  0  1.031677  0  0  0.096889  0.078806  0  1.032679  0
H  H46  1  0.49172439  0.93887034  0.34699279  1  0  0.067911  0  0.959677  0  0  0.079319  0  1.032839  0  0  0.080369  0  1.032275  0  0  0.096869  0.078424  0  1.033365  0
H  H47  1  0.55233973  0.06095570  0.15315125  1  0  0.068117  0  0.959156  0  0  0.07975  0  1.032173  0  0  0.080777  0  1.031658  0  0  0.096946  0.078871  0  1.032665  0
H  H48  1  0.92870426  0.14756718  0.72314203  1  0  0.058761  0  0.969596  0  0  0.075062  0  1.038013  0  0  0.075457  0  1.039054  0  0  0.083452  0.074758  0  1.037174  0
H  H49  1  0.78154644  0.85249965  0.77687407  1  0  0.058709  0  0.969892  0  0  0.074928  0  1.038048  0  0  0.075314  0  1.039094  0  0  0.083543  0.074631  0  1.0372  0
H  H50  1  0.07130153  0.85243441  0.27685444  1  0  0.058831  0  0.96965  0  0  0.075165  0  1.038031  0  0  0.075558  0  1.039074  0  0  0.083512  0.074861  0  1.037197  0
H  H51  1  0.21844728  0.14749519  0.22312801  1  0  0.058713  0  0.969933  0  0  0.074917  0  1.0381  0  0  0.075302  0  1.039148  0  0  0.083542  0.074622  0  1.037249  0
H  H52  1  0.01565031  0.14741161  0.60846533  1  0  0.061771  0  0.938197  0  0  0.081778  0  0.997227  0  0  0.082269  0  0.997956  0  0  0.086795  0.081337  0  0.996809  0
H  H53  1  0.86863420  0.85267261  0.89160459  1  0  0.061457  0  0.938522  0  0  0.081445  0  0.997353  0  0  0.081951  0  0.998034  0  0  0.086515  0.080987  0  0.996996  0
H  H54  1  0.98434752  0.85259146  0.39152883  1  0  0.061772  0  0.938232  0  0  0.081765  0  0.997304  0  0  0.082255  0  0.998034  0  0  0.086797  0.081322  0  0.996891  0
H  H55  1  0.13135761  0.14732535  0.10839971  1  0  0.06146  0  0.938379  0  0  0.08146  0  0.997203  0  0  0.081964  0  0.997888  0  0  0.086508  0.081005  0  0.996842  0
H  H56  1  0.08912724  0.99031946  0.65050531  1  0  0.094828  0  0.967729  0  0  0.112102  0  1.038148  0  0  0.113453  0  1.038533  0  0  0.078912  0.11105  0  1.03798  0
H  H57  1  0.09928289  0.00974090  0.84955397  1  0  0.09521  0  0.967491  0  0  0.112395  0  1.037886  0  0  0.113735  0  1.038287  0  0  0.079164  0.111353  0  1.037707  0
H  H58  1  0.91088623  0.00968356  0.34948748  1  0  0.094787  0  0.96781  0  0  0.112064  0  1.038252  0  0  0.113412  0  1.038642  0  0  0.078902  0.111008  0  1.038091  0
H  H59  1  0.90071873  0.99025232  0.15044496  1  0  0.095221  0  0.967466  0  0  0.112412  0  1.03785  0  0  0.113752  0  1.03825  0  0  0.079202  0.111371  0  1.03767  0
H  H60  1  0.88894446  0.95231718  0.54732104  1  0  0.088339  0  0.960688  0  0  0.112581  0  1.018637  0  0  0.113589  0  1.019199  0  0  0.081656  0.111814  0  1.018281  0
H  H61  1  0.93710853  0.04778296  0.95266989  1  0  0.088368  0  0.961149  0  0  0.112552  0  1.019206  0  0  0.113519  0  1.019804  0  0  0.081693  0.111797  0  1.018837  0
H  H62  1  0.11106204  0.04768583  0.45267107  1  0  0.088319  0  0.960817  0  0  0.112574  0  1.018769  0  0  0.113583  0  1.01933  0  0  0.081675  0.111805  0  1.018415  0
H  H63  1  0.06289229  0.95221563  0.04732915  1  0  0.088361  0  0.961175  0  0  0.112545  0  1.019224  0  0  0.113512  0  1.019823  0  0  0.081723  0.11179  0  1.018858  0
H  H64  1  0.77850007  0.95268091  0.65941952  1  0  0.090322  0  0.97425  0  0  0.110639  0  1.040606  0  0  0.111712  0  1.041332  0  0  0.079609  0.109716  0  1.04031  0
H  H65  1  0.82624117  0.04738350  0.84053150  1  0  0.090608  0  0.974352  0  0  0.110821  0  1.040691  0  0  0.111879  0  1.041438  0  0  0.079947  0.109907  0  1.04039  0
H  H66  1  0.22150975  0.04731827  0.34057289  1  0  0.090345  0  0.974162  0  0  0.110691  0  1.040557  0  0  0.11176  0  1.041289  0  0  0.079623  0.109768  0  1.040256  0
H  H67  1  0.17376331  0.95261198  0.15946601  1  0  0.090556  0  0.9744  0  0  0.110784  0  1.040718  0  0  0.111839  0  1.041473  0  0  0.079909  0.10987  0  1.040416  0
C  C68  1  0.50961045  0.25673721  0.73410710  1  0  0.287645  0  3.753031  0  0  0.256813  0  4.05601  0  0  0.280807  0  4.065226  0  0  0.134867  0.240977  0  4.048488  0
C  C69  1  0.25332950  0.74345009  0.76580148  1  0  0.288164  0  3.750017  0  0  0.256643  0  4.053727  0  0  0.280617  0  4.062977  0  0  0.135146  0.2408  0  4.046217  0
C  C70  1  0.49039080  0.74326223  0.26589489  1  0  0.287712  0  3.75295  0  0  0.256868  0  4.055942  0  0  0.280861  0  4.065158  0  0  0.134861  0.241029  0  4.048427  0
C  C71  1  0.74666515  0.25655008  0.23419935  1  0  0.288272  0  3.749992  0  0  0.256753  0  4.053696  0  0  0.280727  0  4.062945  0  0  0.135185  0.240908  0  4.046188  0
C  C72  1  0.59731726  0.26194062  0.57236168  1  0  -0.049756  0  3.646841  0  0  -0.111612  0  3.896751  0  0  -0.10798  0  3.907917  0  0  -0.070325  -0.113847  0  3.889125  0
C  C73  1  0.33580614  0.73833387  0.92761940  1  0  -0.050199  0  3.644519  0  0  -0.112063  0  3.894735  0  0  -0.108446  0  3.906021  0  0  -0.070108  -0.114264  0  3.88703  0
C  C74  1  0.40268861  0.73806111  0.42764026  1  0  -0.049658  0  3.646646  0  0  -0.111647  0  3.896763  0  0  -0.108027  0  3.907926  0  0  -0.070326  -0.113878  0  3.889129  0
C  C75  1  0.66418756  0.26166789  0.07238323  1  0  -0.050219  0  3.644377  0  0  -0.11212  0  3.894619  0  0  -0.108484  0  3.905881  0  0  -0.0701  -0.114332  0  3.886925  0
C  C76  1  0.83855444  0.33530435  0.57781105  1  0  0.127744  0  3.621237  0  0  0.071175  0  3.893209  0  0  0.077658  0  3.899196  0  0  -0.077235  0.066898  0  3.888964  0
C  C77  1  0.50389050  0.66505121  0.92238204  1  0  0.128736  0  3.61721  0  0  0.071832  0  3.890489  0  0  0.078402  0  3.896284  0  0  -0.076889  0.067487  0  3.886379  0
C  C78  1  0.16145337  0.66469429  0.42219004  1  0  0.127771  0  3.621209  0  0  0.071069  0  3.893384  0  0  0.077573  0  3.899347  0  0  -0.077217  0.066794  0  3.889138  0
C  C79  1  0.49610473  0.33495360  0.07762006  1  0  0.128661  0  3.617382  0  0  0.071796  0  3.8906  0  0  0.078364  0  3.896391  0  0  -0.076857  0.06745  0  3.886489  0
C  C80  1  0.63319957  0.10839545  0.61915117  1  0  -0.002576  0  3.635718  0  0  -0.06409  0  3.894048  0  0  -0.059718  0  3.906063  0  0  -0.064928  -0.066828  0  3.885748  0
C  C81  1  0.52532098  0.89180239  0.88077571  1  0  -0.00181  0  3.636199  0  0  -0.064672  0  3.894802  0  0  -0.060332  0  3.906852  0  0  -0.065032  -0.06736  0  3.886472  0
C  C82  1  0.36680065  0.89160542  0.38084714  1  0  -0.002568  0  3.63586  0  0  -0.064068  0  3.894195  0  0  -0.059695  0  3.906209  0  0  -0.064891  -0.066789  0  3.885896  0
C  C83  1  0.47467158  0.10819708  0.11922765  1  0  -0.001873  0  3.636118  0  0  -0.0648  0  3.89482  0  0  -0.060451  0  3.906866  0  0  -0.065125  -0.067491  0  3.886499  0
C  C84  1  0.88810753  0.10600206  0.64645170  1  0  -0.085368  0  3.703357  0  0  -0.123242  0  3.968109  0  0  -0.124915  0  3.983771  0  0  -0.171375  -0.121974  0  3.95698  0
C  C85  1  0.78256957  0.89409180  0.85356300  1  0  -0.08487  0  3.704279  0  0  -0.121972  0  3.968096  0  0  -0.123601  0  3.983714  0  0  -0.170879  -0.120728  0  3.95701  0
C  C86  1  0.11189712  0.89399723  0.35354482  1  0  -0.085416  0  3.703415  0  0  -0.123332  0  3.968204  0  0  -0.125004  0  3.983864  0  0  -0.171435  -0.122067  0  3.957082  0
C  C87  1  0.21742879  0.10590535  0.14643972  1  0  -0.084891  0  3.704183  0  0  -0.121979  0  3.968029  0  0  -0.123606  0  3.983647  0  0  -0.170888  -0.120744  0  3.956953  0
C  C88  1  0.91361380  0.99445368  0.62447203  1  0  -0.281802  0  3.703724  0  0  -0.352595  0  3.945221  0  0  -0.355424  0  3.956821  0  0  -0.250533  -0.350376  0  3.937243  0
C  C89  1  0.91961764  0.00562604  0.87554188  1  0  -0.2825  0  3.704361  0  0  -0.353095  0  3.945702  0  0  -0.355894  0  3.957301  0  0  -0.250965  -0.35088  0  3.937713  0
C  C90  1  0.08639272  0.00554936  0.37552144  1  0  -0.281789  0  3.703826  0  0  -0.352635  0  3.945282  0  0  -0.35546  0  3.956891  0  0  -0.250591  -0.35041  0  3.937309  0
C  C91  1  0.08038550  0.99437024  0.12445653  1  0  -0.282454  0  3.704305  0  0  -0.353048  0  3.945634  0  0  -0.355848  0  3.957239  0  0  -0.250985  -0.350833  0  3.937649  0
S  S92  1  0.43634837  0.37565434  0.76192840  1  0  -0.529385  0  1.989742  0  0  -0.496166  0  2.305385  0  0  -0.511972  0  2.295096  0  0  -0.18268  -0.485205  0  2.312151  0
S  S93  1  0.06120793  0.62453127  0.73799256  1  0  -0.529795  0  1.988302  0  0  -0.496498  0  2.304125  0  0  -0.512283  0  2.293837  0  0  -0.183229  -0.485523  0  2.310903  0
S  S94  1  0.56364554  0.62434436  0.23807474  1  0  -0.529389  0  1.989764  0  0  -0.496163  0  2.305415  0  0  -0.511974  0  2.295129  0  0  -0.182668  -0.485202  0  2.312179  0
S  S95  1  0.93879505  0.37546815  0.26200874  1  0  -0.529784  0  1.988297  0  0  -0.496489  0  2.304125  0  0  -0.512274  0  2.293836  0  0  -0.183221  -0.485514  0  2.310903  0
S  S96  1  0.49005777  0.19188884  0.81734676  1  0  -0.474997  0  2.01601  0  0  -0.43284  0  2.324049  0  0  -0.448714  0  2.314836  0  0  -0.157896  -0.421645  0  2.329738  0
S  S97  1  0.29851365  0.80824382  0.68251151  1  0  -0.475072  0  2.015303  0  0  -0.432589  0  2.323719  0  0  -0.448466  0  2.314493  0  0  -0.157618  -0.421376  0  2.32941  0
S  S98  1  0.50994310  0.80810984  0.18265570  1  0  -0.475023  0  2.015993  0  0  -0.432875  0  2.324047  0  0  -0.448752  0  2.314835  0  0  -0.157902  -0.421677  0  2.329737  0
S  S99  1  0.70147890  0.19175561  0.31749048  1  0  -0.475124  0  2.015283  0  0  -0.43261  0  2.323709  0  0  -0.448489  0  2.314481  0  0  -0.157634  -0.421399  0  2.329399  0
N  N100  1  0.57893392  0.21165201  0.64630616  1  0  -0.123876  0  3.393779  0  0  -0.024946  0  3.616938  0  0  -0.044536  0  3.64167  0  0  -0.258289  -0.011914  0  3.599751  0
N  N101  1  0.36782550  0.78855994  0.85362460  1  0  -0.125236  0  3.392639  0  0  -0.02559  0  3.615897  0  0  -0.045175  0  3.640664  0  0  -0.259074  -0.012585  0  3.598713  0
N  N102  1  0.42106556  0.78834737  0.35369378  1  0  -0.123878  0  3.393732  0  0  -0.024904  0  3.616904  0  0  -0.044493  0  3.641637  0  0  -0.258264  -0.011872  0  3.599713  0
N  N103  1  0.63216858  0.21144257  0.14637755  1  0  -0.12532  0  3.392696  0  0  -0.025659  0  3.615988  0  0  -0.045245  0  3.640746  0  0  -0.259104  -0.01265  0  3.598803  0
O  O104  1  0.83736052  0.38655327  0.50690652  1  0  -0.624203  0  2.118283  0  0  -0.564432  0  2.354569  0  0  -0.580791  0  2.343186  0  0  -0.493407  -0.552802  0  2.362281  0
O  O105  1  0.45103694  0.61364663  0.99314076  1  0  -0.624391  0  2.117598  0  0  -0.564484  0  2.353991  0  0  -0.580868  0  2.342618  0  0  -0.493341  -0.552843  0  2.36169  0
O  O106  1  0.16264860  0.61344452  0.49309163  1  0  -0.6242  0  2.118185  0  0  -0.564397  0  2.354535  0  0  -0.580762  0  2.343143  0  0  -0.493393  -0.552772  0  2.362253  0
O  O107  1  0.54896700  0.38635820  0.00686202  1  0  -0.624418  0  2.117685  0  0  -0.564519  0  2.354078  0  0  -0.580904  0  2.342703  0  0  -0.493351  -0.552855  0  2.361733  0
O  O108  1  0.03267058  0.26682199  0.91325316  1  0  -0.861833  0  1.895299  0  0  -0.817837  0  2.072031  0  0  -0.834418  0  2.042979  0  0  -0.665926  -0.806182  0  2.092225  0
O  O109  1  0.76584283  0.73329381  0.58682271  1  0  -0.862428  0  1.895734  0  0  -0.818492  0  2.071564  0  0  -0.835075  0  2.042429  0  0  -0.666116  -0.806835  0  2.091758  0
O  O110  1  0.96732442  0.73317888  0.08674515  1  0  -0.861769  0  1.89536  0  0  -0.817798  0  2.072131  0  0  -0.834366  0  2.043047  0  0  -0.665882  -0.806145  0  2.092319  0
O  O111  1  0.23414602  0.26670173  0.41317685  1  0  -0.86225  0  1.89555  0  0  -0.818276  0  2.0716  0  0  -0.834859  0  2.042468  0  0  -0.666013  -0.806621  0  2.09179  0
O  O112  1  0.08720492  0.49878062  0.11207878  1  0  -0.883981  0  1.855591  0  0  -0.835825  0  2.025673  0  0  -0.85156  0  1.994184  0  0  -0.695126  -0.82474  0  2.047767  0
O  O113  1  0.58830209  0.50123776  0.38799190  1  0  -0.8837  0  1.856558  0  0  -0.835138  0  2.026907  0  0  -0.850899  0  1.995482  0  0  -0.695649  -0.824056  0  2.048986  0
O  O114  1  0.91280049  0.50122020  0.88791748  1  0  -0.884215  0  1.855428  0  0  -0.836057  0  2.025533  0  0  -0.851793  0  1.99404  0  0  -0.695215  -0.824968  0  2.047637  0
O  O115  1  0.41169527  0.49876087  0.61200851  1  0  -0.883754  0  1.856534  0  0  -0.835197  0  2.026882  0  0  -0.85096  0  1.995453  0  0  -0.695681  -0.824114  0  2.048963  0
