# generated using pymatgen
data_NdH6(C2N3)3
_symmetry_space_group_name_H-M   'P 1'
_cell_length_a   9.49101089
_cell_length_b   9.49100933
_cell_length_c   13.00731404
_cell_angle_alpha   92.19536193
_cell_angle_beta   92.19553988
_cell_angle_gamma   119.80041063
_symmetry_Int_Tables_number   1
_chemical_formula_structural   NdH6(C2N3)3
_chemical_formula_sum   'Nd4 H24 C24 N36'
_cell_volume   1013.77674520
_cell_formula_units_Z   4
loop_
 _symmetry_equiv_pos_site_id
 _symmetry_equiv_pos_as_xyz
  1  'x, y, z'
loop_
 _atom_site_type_symbol
 _atom_site_label
 _atom_site_symmetry_multiplicity
 _atom_site_fract_x
 _atom_site_fract_y
 _atom_site_fract_z
 _atom_site_occupancy
 _atom_site_hle17_bader_spin_density
 _atom_site_hle17_ddec_charge
 _atom_site_hle17_ddec_spin_density
 _atom_site_hle17_ddec_sum_bond_order
 _atom_site_hle17_magmom
 _atom_site_hse06_10hf_bader_spin_density
 _atom_site_hse06_10hf_ddec_charge
 _atom_site_hse06_10hf_ddec_spin_density
 _atom_site_hse06_10hf_ddec_sum_bond_order
 _atom_site_hse06_10hf_magmom
 _atom_site_hse06_bader_spin_density
 _atom_site_hse06_ddec_charge
 _atom_site_hse06_ddec_spin_density
 _atom_site_hse06_ddec_sum_bond_order
 _atom_site_hse06_magmom
 _atom_site_pbe_bader_spin_density
 _atom_site_pbe_cm5_charge
 _atom_site_pbe_ddec_charge
 _atom_site_pbe_ddec_spin_density
 _atom_site_pbe_ddec_sum_bond_order
 _atom_site_pbe_magmom
Nd  Nd0  1  0.52267944  0.25751706  0.42697744  1  0  1.901713  0  2.094984  0  0  1.588547  0  2.732271  0  0  1.646927  0  2.671003  0  0  1.750765  1.545394  0  2.77628  0
Nd  Nd1  1  0.74248433  0.47732118  0.07302259  1  0  1.901702  0  2.094975  0  0  1.58852  0  2.73228  0  0  1.646898  0  2.671023  0  0  1.750771  1.545361  0  2.776294  0
Nd  Nd2  1  0.47732259  0.74248600  0.57302348  1  0  1.901718  0  2.094952  0  0  1.588536  0  2.732275  0  0  1.646895  0  2.671035  0  0  1.750757  1.545352  0  2.776318  0
Nd  Nd3  1  0.25751692  0.52267822  0.92697743  1  0  1.901686  0  2.09499  0  0  1.588485  0  2.732339  0  0  1.646852  0  2.671082  0  0  1.750749  1.545327  0  2.776336  0
H  H4  1  0.96124349  0.99332494  0.40091867  1  0  0.103858  0  0.955897  0  0  0.112228  0  1.019136  0  0  0.114791  0  1.018217  0  0  0.121293  0.110453  0  1.019833  0
H  H5  1  0.00667540  0.03875553  0.09908249  1  0  0.103866  0  0.955902  0  0  0.112248  0  1.019128  0  0  0.114814  0  1.018206  0  0  0.121299  0.110477  0  1.019826  0
H  H6  1  0.03875627  0.00667569  0.59908366  1  0  0.10384  0  0.9559  0  0  0.112195  0  1.019151  0  0  0.114759  0  1.018232  0  0  0.121275  0.110417  0  1.019852  0
H  H7  1  0.99332585  0.96124387  0.90091754  1  0  0.103851  0  0.955911  0  0  0.112224  0  1.019146  0  0  0.114788  0  1.018226  0  0  0.121283  0.110447  0  1.019845  0
H  H8  1  0.90226942  0.23819304  0.33519776  1  0  0.100374  0  0.968679  0  0  0.1065  0  1.037148  0  0  0.108855  0  1.03647  0  0  0.12145  0.104716  0  1.038053  0
H  H9  1  0.76180712  0.09772976  0.16480265  1  0  0.100329  0  0.968688  0  0  0.106472  0  1.037137  0  0  0.108824  0  1.036453  0  0  0.121449  0.104681  0  1.03806  0
H  H10  1  0.09772973  0.76180637  0.66480298  1  0  0.100338  0  0.968717  0  0  0.10648  0  1.037173  0  0  0.10883  0  1.036491  0  0  0.121446  0.104697  0  1.038076  0
H  H11  1  0.23819369  0.90227086  0.83519816  1  0  0.100329  0  0.968713  0  0  0.106466  0  1.037179  0  0  0.108816  0  1.036499  0  0  0.121445  0.104693  0  1.038062  0
H  H12  1  0.77245269  0.70146607  0.76971157  1  0  0.106053  0  0.958124  0  0  0.115129  0  1.019967  0  0  0.117252  0  1.019789  0  0  0.123528  0.113594  0  1.020172  0
H  H13  1  0.29853269  0.22754662  0.73028803  1  0  0.106043  0  0.958114  0  0  0.115127  0  1.019951  0  0  0.11725  0  1.019774  0  0  0.123525  0.113591  0  1.020156  0
H  H14  1  0.22754751  0.29853333  0.23028766  1  0  0.106033  0  0.958128  0  0  0.115117  0  1.019965  0  0  0.117241  0  1.019787  0  0  0.123516  0.113583  0  1.020173  0
H  H15  1  0.70146917  0.77245400  0.26971282  1  0  0.106075  0  0.958074  0  0  0.115156  0  1.019913  0  0  0.117279  0  1.019736  0  0  0.12353  0.113618  0  1.020121  0
H  H16  1  0.86541805  0.46808661  0.72910015  1  0  0.109362  0  0.954263  0  0  0.118002  0  1.014968  0  0  0.120208  0  1.01474  0  0  0.123023  0.116722  0  1.014662  0
H  H17  1  0.53191081  0.13457842  0.77089664  1  0  0.109433  0  0.954162  0  0  0.118072  0  1.01486  0  0  0.12028  0  1.014632  0  0  0.123059  0.116791  0  1.014552  0
H  H18  1  0.13458003  0.53191279  0.27089672  1  0  0.109378  0  0.954213  0  0  0.118018  0  1.014919  0  0  0.120225  0  1.014691  0  0  0.123027  0.116735  0  1.014611  0
H  H19  1  0.46808650  0.86541733  0.22910011  1  0  0.10938  0  0.954235  0  0  0.118027  0  1.014931  0  0  0.120233  0  1.014703  0  0  0.12302  0.116748  0  1.014624  0
H  H20  1  0.36720121  0.05819828  0.00781932  1  0  0.102024  0  0.973693  0  0  0.111001  0  1.037323  0  0  0.11312  0  1.037235  0  0  0.122023  0.109295  0  1.037752  0
H  H21  1  0.94180026  0.63280063  0.49217995  1  0  0.102032  0  0.973681  0  0  0.111003  0  1.037319  0  0  0.11312  0  1.037242  0  0  0.122032  0.109298  0  1.037743  0
H  H22  1  0.63280110  0.94180112  0.99217997  1  0  0.102038  0  0.973673  0  0  0.111018  0  1.037298  0  0  0.113135  0  1.037217  0  0  0.122035  0.109315  0  1.037722  0
H  H23  1  0.05819949  0.36719999  0.50781930  1  0  0.102011  0  0.973714  0  0  0.110986  0  1.037346  0  0  0.113108  0  1.037251  0  0  0.122027  0.109282  0  1.037771  0
H  H24  1  0.16531335  0.87663909  0.15976514  1  0  0.110217  0  0.963032  0  0  0.116534  0  1.029231  0  0  0.11941  0  1.027741  0  0  0.124265  0.114394  0  1.03054  0
H  H25  1  0.12335960  0.83468988  0.34023456  1  0  0.110192  0  0.963032  0  0  0.116522  0  1.029218  0  0  0.119399  0  1.027721  0  0  0.124269  0.114379  0  1.030526  0
H  H26  1  0.83468457  0.12335788  0.84023320  1  0  0.1102  0  0.963083  0  0  0.116523  0  1.029268  0  0  0.1194  0  1.027773  0  0  0.124279  0.114382  0  1.030575  0
H  H27  1  0.87664137  0.16531317  0.65976556  1  0  0.110203  0  0.963062  0  0  0.116524  0  1.029256  0  0  0.119401  0  1.027761  0  0  0.124262  0.11438  0  1.030565  0
C  C28  1  0.86127573  0.01487856  0.41426934  1  0  0.005332  0  3.720996  0  0  -0.023543  0  3.984886  0  0  -0.022909  0  4.001283  0  0  0.014348  -0.024094  0  3.973836  0
C  C29  1  0.98512088  0.13872318  0.08573125  1  0  0.005239  0  3.721041  0  0  -0.023655  0  3.984952  0  0  -0.023022  0  4.001346  0  0  0.014329  -0.024205  0  3.973913  0
C  C30  1  0.13872552  0.98512084  0.58573223  1  0  0.00533  0  3.721103  0  0  -0.023528  0  3.984995  0  0  -0.022893  0  4.00139  0  0  0.014369  -0.024069  0  3.973942  0
C  C31  1  0.01487827  0.86127622  0.91426795  1  0  0.005339  0  3.720991  0  0  -0.023543  0  3.98489  0  0  -0.022908  0  4.001285  0  0  0.014373  -0.024087  0  3.973844  0
C  C32  1  0.83184139  0.13635525  0.38130842  1  0  -0.000228  0  3.726324  0  0  -0.031553  0  3.99011  0  0  -0.029109  0  4.006722  0  0  0.017577  -0.033493  0  3.979671  0
C  C33  1  0.86364349  0.16815632  0.11869195  1  0  -5.5e-05  0  3.726224  0  0  -0.031387  0  3.990015  0  0  -0.028934  0  4.006618  0  0  0.01767  -0.033338  0  3.979578  0
C  C34  1  0.16815837  0.86364537  0.61869237  1  0  -0.000161  0  3.726392  0  0  -0.031506  0  3.99019  0  0  -0.029051  0  4.006792  0  0  0.017589  -0.033454  0  3.979757  0
C  C35  1  0.13635671  0.83184309  0.88130805  1  0  -0.000157  0  3.726274  0  0  -0.031494  0  3.990057  0  0  -0.029044  0  4.006662  0  0  0.017607  -0.033444  0  3.979629  0
C  C36  1  0.73478448  0.60937106  0.70676852  1  0  0.017371  0  3.688663  0  0  -0.017701  0  3.954307  0  0  -0.015114  0  3.971411  0  0  0.021022  -0.019167  0  3.942726  0
C  C37  1  0.39062977  0.26521273  0.79323114  1  0  0.017411  0  3.688665  0  0  -0.017676  0  3.954322  0  0  -0.015091  0  3.971429  0  0  0.021011  -0.019136  0  3.942735  0
C  C38  1  0.26521422  0.39062956  0.29323070  1  0  0.017388  0  3.688687  0  0  -0.0177  0  3.954352  0  0  -0.015113  0  3.97146  0  0  0.021004  -0.019169  0  3.942776  0
C  C39  1  0.60937087  0.73478545  0.20676576  1  0  0.017358  0  3.688821  0  0  -0.01772  0  3.954486  0  0  -0.015134  0  3.971593  0  0  0.021046  -0.019182  0  3.942895  0
C  C40  1  0.78131028  0.49365896  0.68638378  1  0  0.011416  0  3.705028  0  0  -0.019182  0  3.975211  0  0  -0.01829  0  3.992173  0  0  0.014323  -0.019779  0  3.963323  0
C  C41  1  0.50633966  0.21869222  0.81361692  1  0  0.011302  0  3.705143  0  0  -0.019289  0  3.975327  0  0  -0.018401  0  3.992293  0  0  0.0143  -0.019887  0  3.963434  0
C  C42  1  0.21869036  0.50633922  0.31361620  1  0  0.011369  0  3.705108  0  0  -0.019215  0  3.975277  0  0  -0.018326  0  3.992244  0  0  0.014307  -0.019816  0  3.963387  0
C  C43  1  0.49366298  0.78131205  0.18638404  1  0  0.011362  0  3.705124  0  0  -0.019238  0  3.975312  0  0  -0.018347  0  3.992274  0  0  0.014286  -0.01984  0  3.963421  0
C  C44  1  0.38084364  0.07978255  0.09083625  1  0  0.017482  0  3.698203  0  0  -0.018579  0  3.962017  0  0  -0.015761  0  3.978996  0  0  0.021633  -0.020125  0  3.950265  0
C  C45  1  0.92021682  0.61915853  0.40916381  1  0  0.017577  0  3.69819  0  0  -0.018475  0  3.961992  0  0  -0.01566  0  3.978969  0  0  0.021689  -0.020021  0  3.950233  0
C  C46  1  0.61915594  0.92021563  0.90916293  1  0  0.017412  0  3.698295  0  0  -0.018658  0  3.962118  0  0  -0.015841  0  3.979097  0  0  0.021601  -0.020199  0  3.950358  0
C  C47  1  0.07978354  0.38084331  0.59083626  1  0  0.017557  0  3.698219  0  0  -0.018499  0  3.962025  0  0  -0.01568  0  3.979004  0  0  0.021671  -0.020038  0  3.95026  0
C  C48  1  0.28028773  0.99026779  0.16658201  1  0  0.003499  0  3.704115  0  0  -0.025588  0  3.97054  0  0  -0.025034  0  3.98682  0  0  0.014166  -0.025807  0  3.959635  0
C  C49  1  0.00973035  0.71971431  0.33341686  1  0  0.003536  0  3.704122  0  0  -0.025557  0  3.97054  0  0  -0.024998  0  3.98682  0  0  0.014175  -0.025769  0  3.959626  0
C  C50  1  0.71971413  0.00973283  0.83341729  1  0  0.003583  0  3.704099  0  0  -0.025498  0  3.970517  0  0  -0.024943  0  3.986796  0  0  0.014165  -0.025717  0  3.959608  0
C  C51  1  0.99026835  0.28028631  0.66658236  1  0  0.003541  0  3.70415  0  0  -0.025551  0  3.970581  0  0  -0.024995  0  3.986861  0  0  0.014192  -0.025771  0  3.959675  0
N  N52  1  0.69028205  0.11053668  0.41897557  1  0  -0.30955  0  3.229934  0  0  -0.256314  0  3.512851  0  0  -0.266845  0  3.530861  0  0  -0.302888  -0.248674  0  3.500775  0
N  N53  1  0.88946371  0.30971711  0.08102552  1  0  -0.309652  0  3.22991  0  0  -0.256429  0  3.512849  0  0  -0.266959  0  3.530853  0  0  -0.303039  -0.248779  0  3.50076  0
N  N54  1  0.30971815  0.88946273  0.58102443  1  0  -0.30957  0  3.229887  0  0  -0.256332  0  3.51281  0  0  -0.266859  0  3.530815  0  0  -0.302892  -0.248683  0  3.500731  0
N  N55  1  0.11053649  0.69028229  0.91897525  1  0  -0.309579  0  3.2299  0  0  -0.256349  0  3.512825  0  0  -0.266874  0  3.530829  0  0  -0.302951  -0.248697  0  3.500735  0
N  N56  1  0.63601396  0.97839932  0.47274218  1  0  -0.230413  0  3.319615  0  0  -0.181115  0  3.601186  0  0  -0.189002  0  3.621844  0  0  -0.2562  -0.175023  0  3.586429  0
N  N57  1  0.02160028  0.36398585  0.02725863  1  0  -0.230353  0  3.319615  0  0  -0.181041  0  3.601164  0  0  -0.188933  0  3.621825  0  0  -0.256117  -0.174952  0  3.5864  0
N  N58  1  0.36398580  0.02160130  0.52725784  1  0  -0.230381  0  3.319584  0  0  -0.181078  0  3.601146  0  0  -0.188969  0  3.621808  0  0  -0.256182  -0.175  0  3.586406  0
N  N59  1  0.97839887  0.63601356  0.97274134  1  0  -0.23039  0  3.319698  0  0  -0.181077  0  3.601251  0  0  -0.188971  0  3.621913  0  0  -0.256164  -0.174994  0  3.586493  0
N  N60  1  0.73663342  0.91809727  0.47137928  1  0  -0.319258  0  3.149437  0  0  -0.274881  0  3.427721  0  0  -0.283296  0  3.444743  0  0  -0.300657  -0.268815  0  3.416373  0
N  N61  1  0.08190324  0.26336679  0.02862098  1  0  -0.319249  0  3.149439  0  0  -0.274868  0  3.427721  0  0  -0.283284  0  3.444744  0  0  -0.300656  -0.268808  0  3.416386  0
N  N62  1  0.26336799  0.08190457  0.52862158  1  0  -0.319275  0  3.14947  0  0  -0.274906  0  3.427753  0  0  -0.283323  0  3.444778  0  0  -0.300674  -0.26885  0  3.416421  0
N  N63  1  0.91809530  0.73663139  0.97137818  1  0  -0.319265  0  3.149568  0  0  -0.274895  0  3.427859  0  0  -0.283311  0  3.444882  0  0  -0.300652  -0.268838  0  3.41653  0
N  N64  1  0.69584276  0.40566474  0.59880985  1  0  -0.323469  0  3.163241  0  0  -0.274847  0  3.437875  0  0  -0.284443  0  3.456863  0  0  -0.303876  -0.268272  0  3.425121  0
N  N65  1  0.59433443  0.30415373  0.90118840  1  0  -0.32354  0  3.163303  0  0  -0.274924  0  3.437942  0  0  -0.284519  0  3.456931  0  0  -0.303933  -0.268336  0  3.425177  0
N  N66  1  0.30415427  0.59433466  0.40118776  1  0  -0.323503  0  3.163277  0  0  -0.274881  0  3.437913  0  0  -0.284476  0  3.456901  0  0  -0.303889  -0.268294  0  3.425144  0
N  N67  1  0.40566560  0.69584323  0.09880999  1  0  -0.323503  0  3.163259  0  0  -0.274879  0  3.437897  0  0  -0.284475  0  3.456885  0  0  -0.303892  -0.268292  0  3.42513  0
N  N68  1  0.60191958  0.46574691  0.56753623  1  0  -0.228017  0  3.330898  0  0  -0.176469  0  3.606508  0  0  -0.184456  0  3.628636  0  0  -0.26044  -0.17051  0  3.590894  0
N  N69  1  0.53425402  0.39807774  0.93246268  1  0  -0.227855  0  3.330862  0  0  -0.1763  0  3.606458  0  0  -0.184287  0  3.628586  0  0  -0.260371  -0.170355  0  3.590863  0
N  N70  1  0.39807806  0.53425372  0.43246296  1  0  -0.227898  0  3.330854  0  0  -0.176346  0  3.606459  0  0  -0.184334  0  3.628589  0  0  -0.260381  -0.17039  0  3.590844  0
N  N71  1  0.46574873  0.60192044  0.06753735  1  0  -0.227948  0  3.331007  0  0  -0.176391  0  3.606598  0  0  -0.184376  0  3.628725  0  0  -0.260409  -0.17044  0  3.590996  0
N  N72  1  0.62303867  0.58942036  0.63102058  1  0  -0.317468  0  3.243647  0  0  -0.262388  0  3.527413  0  0  -0.27349  0  3.546215  0  0  -0.308718  -0.254503  0  3.514206  0
N  N73  1  0.41057995  0.37695958  0.86898053  1  0  -0.317545  0  3.24364  0  0  -0.262463  0  3.527419  0  0  -0.273564  0  3.546219  0  0  -0.308736  -0.254585  0  3.514224  0
N  N74  1  0.37696065  0.41058148  0.36898023  1  0  -0.317514  0  3.243634  0  0  -0.262437  0  3.527416  0  0  -0.27354  0  3.54622  0  0  -0.30873  -0.254559  0  3.514218  0
N  N75  1  0.58942252  0.62304226  0.13102114  1  0  -0.317475  0  3.243886  0  0  -0.262398  0  3.527649  0  0  -0.273501  0  3.546451  0  0  -0.308718  -0.254519  0  3.51445  0
N  N76  1  0.35419275  0.06949459  0.25891560  1  0  -0.329864  0  3.146976  0  0  -0.281915  0  3.421782  0  0  -0.290557  0  3.438324  0  0  -0.297011  -0.275852  0  3.411108  0
N  N77  1  0.93050489  0.64580908  0.24108366  1  0  -0.329913  0  3.14697  0  0  -0.281959  0  3.42178  0  0  -0.2906  0  3.438318  0  0  -0.297049  -0.275894  0  3.411101  0
N  N78  1  0.64580578  0.93050359  0.74108278  1  0  -0.329941  0  3.146934  0  0  -0.281986  0  3.42174  0  0  -0.290627  0  3.438277  0  0  -0.297025  -0.275915  0  3.411062  0
N  N79  1  0.06949487  0.35419155  0.75891636  1  0  -0.329901  0  3.146981  0  0  -0.281949  0  3.421791  0  0  -0.290587  0  3.438325  0  0  -0.297036  -0.275884  0  3.411115  0
N  N80  1  0.49375336  0.20146316  0.23950923  1  0  -0.220538  0  3.31269  0  0  -0.170966  0  3.590311  0  0  -0.178525  0  3.611299  0  0  -0.25636  -0.165645  0  3.576111  0
N  N81  1  0.79853753  0.50624848  0.26049084  1  0  -0.220485  0  3.312718  0  0  -0.170906  0  3.590333  0  0  -0.178468  0  3.611324  0  0  -0.256344  -0.165586  0  3.576136  0
N  N82  1  0.50624623  0.79853503  0.76049071  1  0  -0.220486  0  3.312752  0  0  -0.17091  0  3.590358  0  0  -0.178466  0  3.611343  0  0  -0.256334  -0.165596  0  3.576171  0
N  N83  1  0.20146328  0.49375214  0.73950921  1  0  -0.220499  0  3.312732  0  0  -0.170919  0  3.59035  0  0  -0.178479  0  3.611337  0  0  -0.256351  -0.165605  0  3.576158  0
N  N84  1  0.51292272  0.21128954  0.13838098  1  0  -0.309889  0  3.218264  0  0  -0.252888  0  3.497099  0  0  -0.263717  0  3.515625  0  0  -0.303268  -0.244777  0  3.483748  0
N  N85  1  0.78871178  0.48707936  0.36161836  1  0  -0.310023  0  3.218379  0  0  -0.253037  0  3.497239  0  0  -0.263865  0  3.515768  0  0  -0.303328  -0.244933  0  3.483898  0
N  N86  1  0.48707853  0.78870985  0.86161828  1  0  -0.30989  0  3.218406  0  0  -0.252885  0  3.497239  0  0  -0.263714  0  3.515768  0  0  -0.303275  -0.244776  0  3.483894  0
N  N87  1  0.21128859  0.51292248  0.63838171  1  0  -0.309984  0  3.218342  0  0  -0.252994  0  3.4972  0  0  -0.263821  0  3.515729  0  0  -0.303311  -0.244884  0  3.483853  0
