# generated using pymatgen
data_CaH8C10(N2O5)2
_symmetry_space_group_name_H-M   'P 1'
_cell_length_a   7.58192417
_cell_length_b   8.18053479
_cell_length_c   10.81967092
_cell_angle_alpha   91.36047440
_cell_angle_beta   102.81706656
_cell_angle_gamma   93.16314233
_symmetry_Int_Tables_number   1
_chemical_formula_structural   CaH8C10(N2O5)2
_chemical_formula_sum   'Ca2 H16 C20 N8 O20'
_cell_volume   652.91691902
_cell_formula_units_Z   2
loop_
 _symmetry_equiv_pos_site_id
 _symmetry_equiv_pos_as_xyz
  1  'x, y, z'
loop_
 _atom_site_type_symbol
 _atom_site_label
 _atom_site_symmetry_multiplicity
 _atom_site_fract_x
 _atom_site_fract_y
 _atom_site_fract_z
 _atom_site_occupancy
 _atom_site_hle17_bader_spin_density
 _atom_site_hle17_ddec_charge
 _atom_site_hle17_ddec_spin_density
 _atom_site_hle17_ddec_sum_bond_order
 _atom_site_hle17_magmom
 _atom_site_hse06_10hf_bader_spin_density
 _atom_site_hse06_10hf_ddec_charge
 _atom_site_hse06_10hf_ddec_spin_density
 _atom_site_hse06_10hf_ddec_sum_bond_order
 _atom_site_hse06_10hf_magmom
 _atom_site_hse06_bader_spin_density
 _atom_site_hse06_ddec_charge
 _atom_site_hse06_ddec_spin_density
 _atom_site_hse06_ddec_sum_bond_order
 _atom_site_hse06_magmom
 _atom_site_pbe_bader_spin_density
 _atom_site_pbe_cm5_charge
 _atom_site_pbe_ddec_charge
 _atom_site_pbe_ddec_spin_density
 _atom_site_pbe_ddec_sum_bond_order
 _atom_site_pbe_magmom
Ca  Ca0  1  0.22743718  0.36161142  0.83630876  1  0  1.570203  0  1.040575  0  0  1.436366  0  1.386164  0  0  1.478176  0  1.341422  0  0  0.873396  1.404953  0  1.418124  0
Ca  Ca1  1  0.77256361  0.63838803  0.16369175  1  0  1.570168  0  1.040648  0  0  1.436388  0  1.386134  0  0  1.478207  0  1.341385  0  0  0.873396  1.40498  0  1.41809  0
H  H2  1  0.31774133  0.99110697  0.88872303  1  0  0.39155  0  0.916342  0  0  0.360505  0  0.993271  0  0  0.373519  0  0.976989  0  0  0.30758  0.351482  0  1.001751  0
H  H3  1  0.68225946  0.00889248  0.11127749  1  0  0.39157  0  0.916308  0  0  0.360528  0  0.993233  0  0  0.373541  0  0.976954  0  0  0.307588  0.351506  0  1.00171  0
H  H4  1  0.21360263  0.17664873  0.13193941  1  0  0.398546  0  0.899651  0  0  0.364051  0  0.983074  0  0  0.377421  0  0.969326  0  0  0.300728  0.354611  0  0.99249  0
H  H5  1  0.78639536  0.82334950  0.86805972  1  0  0.398577  0  0.89957  0  0  0.364108  0  0.982935  0  0  0.377478  0  0.969233  0  0  0.300747  0.354666  0  0.992352  0
H  H6  1  0.00470761  0.14398166  0.62883658  1  0  0.433032  0  0.864991  0  0  0.401374  0  0.929259  0  0  0.412311  0  0.913247  0  0  0.293144  0.393635  0  0.940591  0
H  H7  1  0.99529200  0.85602023  0.37116473  1  0  0.433037  0  0.86498  0  0  0.401375  0  0.929258  0  0  0.412313  0  0.913244  0  0  0.293138  0.393636  0  0.94059  0
H  H8  1  0.11054931  0.28406371  0.56364176  1  0  0.401849  0  0.917846  0  0  0.357901  0  1.004514  0  0  0.369485  0  0.987815  0  0  0.282513  0.349731  0  1.016268  0
H  H9  1  0.88945012  0.71593574  0.43635855  1  0  0.40186  0  0.917834  0  0  0.357907  0  1.004509  0  0  0.36949  0  0.98781  0  0  0.282513  0.349736  0  1.016263  0
H  H10  1  0.89686038  0.14773072  0.85788595  1  0  0.436518  0  0.849219  0  0  0.404862  0  0.913078  0  0  0.415595  0  0.897058  0  0  0.30542  0.397217  0  0.9245  0
H  H11  1  0.10313914  0.85226995  0.14211532  1  0  0.436543  0  0.849184  0  0  0.404886  0  0.913044  0  0  0.415619  0  0.897023  0  0  0.30541  0.397241  0  0.924465  0
H  H12  1  0.90437228  0.29863522  0.95224751  1  0  0.430833  0  0.867201  0  0  0.398343  0  0.933076  0  0  0.409682  0  0.916459  0  0  0.300827  0.390232  0  0.944942  0
H  H13  1  0.09562859  0.70136545  0.04775397  1  0  0.430839  0  0.867193  0  0  0.398353  0  0.93306  0  0  0.409693  0  0.916443  0  0  0.300829  0.390242  0  0.944925  0
H  H14  1  0.40890901  0.86056774  0.49490229  1  0  0.331249  0  0.895317  0  0  0.305594  0  0.965867  0  0  0.31537  0  0.957217  0  0  0.32251  0.29862  0  0.97219  0
H  H15  1  0.59109177  0.13943171  0.50509822  1  0  0.331284  0  0.895289  0  0  0.305625  0  0.965841  0  0  0.315401  0  0.957191  0  0  0.322532  0.298653  0  0.972163  0
H  H16  1  0.40314008  0.67538177  0.33227115  1  0  0.328447  0  0.901218  0  0  0.3023  0  0.970557  0  0  0.312931  0  0.961086  0  0  0.320783  0.294761  0  0.977347  0
H  H17  1  0.59685934  0.32461770  0.66772638  1  0  0.328447  0  0.901226  0  0  0.302303  0  0.970562  0  0  0.312933  0  0.961091  0  0  0.320783  0.294765  0  0.977349  0
C  C18  1  0.23501709  0.75875477  0.87123095  1  0  0.658782  0  3.839208  0  0  0.60167  0  4.144963  0  0  0.636862  0  4.134267  0  0  0.248085  0.578037  0  4.151492  0
C  C19  1  0.76498099  0.24124467  0.12876915  1  0  0.658854  0  3.839124  0  0  0.601751  0  4.144882  0  0  0.636949  0  4.134176  0  0  0.248162  0.578121  0  4.151413  0
C  C20  1  0.27839142  0.53093183  0.45790710  1  0  0.284244  0  3.738982  0  0  0.252553  0  4.010862  0  0  0.263949  0  4.022676  0  0  0.237746  0.245073  0  4.002656  0
C  C21  1  0.72160943  0.46906886  0.54209068  1  0  0.284383  0  3.739059  0  0  0.2526  0  4.010947  0  0  0.264002  0  4.022765  0  0  0.237799  0.245122  0  4.002744  0
C  C22  1  0.27856377  0.75413373  0.74507319  1  0  -0.029158  0  3.798441  0  0  -0.033997  0  4.06579  0  0  -0.038245  0  4.086729  0  0  0.088021  -0.031298  0  4.051733  0
C  C23  1  0.72143702  0.24586572  0.25492732  1  0  -0.029084  0  3.798334  0  0  -0.03397  0  4.065756  0  0  -0.038219  0  4.086691  0  0  0.088033  -0.031278  0  4.051711  0
C  C24  1  0.30283723  0.42913409  0.27212151  1  0  0.021097  0  3.684357  0  0  0.003574  0  3.948884  0  0  0.003744  0  3.966448  0  0  0.102851  0.003517  0  3.936932  0
C  C25  1  0.69716228  0.57086659  0.72787791  1  0  0.021008  0  3.684551  0  0  0.003501  0  3.949051  0  0  0.003671  0  3.966614  0  0  0.102863  0.003444  0  3.937098  0
C  C26  1  0.35222322  0.87671626  0.67980226  1  0  0.028687  0  3.675472  0  0  0.008935  0  3.941449  0  0  0.008992  0  3.958859  0  0  0.101121  0.008286  0  3.930385  0
C  C27  1  0.64777748  0.12328198  0.32019729  1  0  0.028625  0  3.675353  0  0  0.008879  0  3.941332  0  0  0.008934  0  3.958742  0  0  0.10112  0.008232  0  3.93027  0
C  C28  1  0.15811600  0.13938039  0.30134870  1  0  0.638907  0  3.855939  0  0  0.580722  0  4.171753  0  0  0.613555  0  4.163188  0  0  0.228185  0.558397  0  4.177167  0
C  C29  1  0.84188224  0.86062152  0.69864962  1  0  0.638872  0  3.855888  0  0  0.580678  0  4.171726  0  0  0.613509  0  4.163162  0  0  0.228168  0.558354  0  4.177137  0
C  C30  1  0.21981681  0.31185458  0.33664513  1  0  -0.015958  0  3.761221  0  0  -0.027718  0  4.03716  0  0  -0.03157  0  4.057037  0  0  0.084349  -0.02547  0  4.024095  0
C  C31  1  0.78017999  0.68814610  0.66335388  1  0  -0.01586  0  3.761081  0  0  -0.027617  0  4.037002  0  0  -0.031464  0  4.056872  0  0  0.084375  -0.02537  0  4.023937  0
C  C32  1  0.29228589  0.64531966  0.56399157  1  0  0.301065  0  3.728796  0  0  0.273453  0  3.998551  0  0  0.285723  0  4.01038  0  0  0.241102  0.265233  0  3.990238  0
C  C33  1  0.70771488  0.35467980  0.43600709  1  0  0.300848  0  3.728949  0  0  0.273404  0  3.99851  0  0  0.285654  0  4.010353  0  0  0.241082  0.265172  0  3.990219  0
C  C34  1  0.41446627  0.04967229  0.71365388  1  0  0.668226  0  3.905992  0  0  0.610767  0  4.216473  0  0  0.646376  0  4.204064  0  0  0.236538  0.586593  0  4.224478  0
C  C35  1  0.58553444  0.95032593  0.28634752  1  0  0.668309  0  3.906  0  0  0.610888  0  4.216433  0  0  0.646495  0  4.204024  0  0  0.23659  0.586712  0  4.22444  0
C  C36  1  0.36096378  0.42675647  0.15013692  1  0  0.658588  0  3.945027  0  0  0.605354  0  4.251184  0  0  0.639876  0  4.241251  0  0  0.233173  0.5822  0  4.256714  0
C  C37  1  0.63903682  0.57324055  0.84985981  1  0  0.658636  0  3.945066  0  0  0.605367  0  4.251276  0  0  0.639887  0  4.241345  0  0  0.233147  0.582213  0  4.256804  0
N  N38  1  0.33925680  0.56516039  0.35131040  1  0  -0.306914  0  3.398221  0  0  -0.251595  0  3.632739  0  0  -0.266741  0  3.645339  0  0  -0.349379  -0.241071  0  3.624047  0
N  N39  1  0.66074143  0.43484151  0.64868793  1  0  -0.30697  0  3.398331  0  0  -0.251641  0  3.632865  0  0  -0.266785  0  3.645463  0  0  -0.349455  -0.241117  0  3.624171  0
N  N40  1  0.20716620  0.37718502  0.45180946  1  0  -0.342824  0  3.041251  0  0  -0.303536  0  3.302666  0  0  -0.314963  0  3.315784  0  0  -0.294428  -0.295969  0  3.294167  0
N  N41  1  0.79283458  0.62281443  0.54819013  1  0  -0.34289  0  3.041235  0  0  -0.303582  0  3.302661  0  0  -0.315012  0  3.315776  0  0  -0.294452  -0.296014  0  3.29416  0
N  N42  1  0.35893080  0.80430419  0.56599460  1  0  -0.303945  0  3.376884  0  0  -0.24934  0  3.610443  0  0  -0.264482  0  3.623686  0  0  -0.353922  -0.239307  0  3.601916  0
N  N43  1  0.64106999  0.19569526  0.43400591  1  0  -0.303916  0  3.376837  0  0  -0.249355  0  3.610357  0  0  -0.26449  0  3.623604  0  0  -0.353935  -0.239322  0  3.601841  0
N  N44  1  0.24409159  0.61110377  0.67274637  1  0  -0.407809  0  3.027966  0  0  -0.377368  0  3.299341  0  0  -0.390514  0  3.315599  0  0  -0.325927  -0.36765  0  3.287717  0
N  N45  1  0.75591046  0.38889447  0.32725338  1  0  -0.407763  0  3.02794  0  0  -0.377375  0  3.299302  0  0  -0.390517  0  3.315566  0  0  -0.325955  -0.367653  0  3.287685  0
O  O46  1  0.16586162  0.63250546  0.91012581  1  0  -0.619668  0  1.987718  0  0  -0.55933  0  2.214586  0  0  -0.584844  0  2.205475  0  0  -0.306653  -0.541618  0  2.220369  0
O  O47  1  0.83413932  0.36749645  0.08987386  1  0  -0.619676  0  1.987676  0  0  -0.559341  0  2.21454  0  0  -0.584859  0  2.205427  0  0  -0.30667  -0.541627  0  2.220322  0
O  O48  1  0.26546171  0.89514408  0.93937199  1  0  -0.507204  0  2.08208  0  0  -0.455077  0  2.295226  0  0  -0.476619  0  2.278314  0  0  -0.29925  -0.440166  0  2.3046  0
O  O49  1  0.73453916  0.10485659  0.06062856  1  0  -0.507261  0  2.082042  0  0  -0.455133  0  2.295185  0  0  -0.476675  0  2.27827  0  0  -0.299281  -0.440224  0  2.30456  0
O  O50  1  0.10212288  0.05085181  0.37724177  1  0  -0.535295  0  1.958292  0  0  -0.485875  0  2.175884  0  0  -0.506037  0  2.166977  0  0  -0.275572  -0.472091  0  2.181962  0
O  O51  1  0.89788078  0.94915009  0.62276016  1  0  -0.535256  0  1.958249  0  0  -0.485827  0  2.175834  0  0  -0.505986  0  2.16693  0  0  -0.275555  -0.472044  0  2.18191  0
O  O52  1  0.16526457  0.08438422  0.18593822  1  0  -0.560428  0  2.115671  0  0  -0.501851  0  2.338508  0  0  -0.52474  0  2.322802  0  0  -0.31352  -0.485999  0  2.349029  0
O  O53  1  0.83473479  0.91561400  0.81406297  1  0  -0.560471  0  2.115613  0  0  -0.501912  0  2.33843  0  0  -0.524802  0  2.322758  0  0  -0.313559  -0.486058  0  2.348952  0
O  O54  1  0.38019681  0.10982753  0.81629466  1  0  -0.647559  0  2.056372  0  0  -0.585464  0  2.292236  0  0  -0.612209  0  2.278935  0  0  -0.33438  -0.566796  0  2.300085  0
O  O55  1  0.61980263  0.89017192  0.18370657  1  0  -0.647612  0  2.056367  0  0  -0.58555  0  2.292231  0  0  -0.612296  0  2.278929  0  0  -0.334451  -0.566884  0  2.300083  0
O  O56  1  0.49517077  0.12792500  0.64164412  1  0  -0.590876  0  1.999498  0  0  -0.54106  0  2.230474  0  0  -0.563388  0  2.218545  0  0  -0.290506  -0.525721  0  2.238586  0
O  O57  1  0.50483138  0.87207445  0.35835753  1  0  -0.590879  0  1.999504  0  0  -0.541066  0  2.230456  0  0  -0.563396  0  2.218531  0  0  -0.290494  -0.52573  0  2.238582  0
O  O58  1  0.29529028  0.30737951  0.06980243  1  0  -0.658306  0  1.989262  0  0  -0.597087  0  2.222181  0  0  -0.62418  0  2.211385  0  0  -0.327358  -0.57795  0  2.228881  0
O  O59  1  0.70470635  0.69261872  0.93019558  1  0  -0.658293  0  1.989142  0  0  -0.597079  0  2.222052  0  0  -0.624174  0  2.211271  0  0  -0.327339  -0.577941  0  2.22875  0
O  O60  1  0.46955463  0.54061786  0.13351933  1  0  -0.656544  0  2.019914  0  0  -0.613028  0  2.281423  0  0  -0.636459  0  2.269327  0  0  -0.346815  -0.596408  0  2.289141  0
O  O61  1  0.53044596  0.45937917  0.86647648  1  0  -0.656546  0  2.019931  0  0  -0.613016  0  2.281456  0  0  -0.636445  0  2.269361  0  0  -0.346782  -0.596395  0  2.289176  0
O  O62  1  0.06453387  0.25545196  0.64096688  1  0  -0.920485  0  1.864398  0  0  -0.865394  0  2.074565  0  0  -0.887721  0  2.042366  0  0  -0.657199  -0.849188  0  2.096973  0
O  O63  1  0.93546564  0.74454872  0.35903254  1  0  -0.920494  0  1.864357  0  0  -0.865404  0  2.074523  0  0  -0.887735  0  2.042322  0  0  -0.657194  -0.849199  0  2.096929  0
O  O64  1  0.94747717  0.26092066  0.87707986  1  0  -0.878859  0  1.790536  0  0  -0.820619  0  1.970402  0  0  -0.840869  0  1.937448  0  0  -0.633166  -0.805889  0  1.99358  0
O  O65  1  0.05252226  0.73907879  0.12292044  1  0  -0.878881  0  1.790533  0  0  -0.820656  0  1.9704  0  0  -0.840907  0  1.937445  0  0  -0.633152  -0.805927  0  1.993578  0
