# generated using pymatgen
data_AgH3C4N2O
_symmetry_space_group_name_H-M   'P 1'
_cell_length_a   7.10975865
_cell_length_b   11.56077133
_cell_length_c   11.91982788
_cell_angle_alpha   90.00697610
_cell_angle_beta   89.99275550
_cell_angle_gamma   90.00093451
_symmetry_Int_Tables_number   1
_chemical_formula_structural   AgH3C4N2O
_chemical_formula_sum   'Ag8 H24 C32 N16 O8'
_cell_volume   979.74182143
_cell_formula_units_Z   8
loop_
 _symmetry_equiv_pos_site_id
 _symmetry_equiv_pos_as_xyz
  1  'x, y, z'
loop_
 _atom_site_type_symbol
 _atom_site_label
 _atom_site_symmetry_multiplicity
 _atom_site_fract_x
 _atom_site_fract_y
 _atom_site_fract_z
 _atom_site_occupancy
 _atom_site_hle17_bader_spin_density
 _atom_site_hle17_ddec_charge
 _atom_site_hle17_ddec_spin_density
 _atom_site_hle17_ddec_sum_bond_order
 _atom_site_hle17_magmom
 _atom_site_hse06_10hf_bader_charge
 _atom_site_hse06_10hf_bader_spin_density
 _atom_site_hse06_10hf_ddec_charge
 _atom_site_hse06_10hf_ddec_spin_density
 _atom_site_hse06_10hf_ddec_sum_bond_order
 _atom_site_hse06_10hf_magmom
 _atom_site_hse06_bader_spin_density
 _atom_site_hse06_ddec_charge
 _atom_site_hse06_ddec_spin_density
 _atom_site_hse06_ddec_sum_bond_order
 _atom_site_hse06_magmom
 _atom_site_pbe_bader_spin_density
 _atom_site_pbe_cm5_charge
 _atom_site_pbe_ddec_charge
 _atom_site_pbe_ddec_spin_density
 _atom_site_pbe_ddec_sum_bond_order
 _atom_site_pbe_magmom
Ag  Ag0  1  0.26204265  0.44665006  0.57323331  1  0  0.514511  0  1.447413  0  0.572333  0  0.369898  0  1.882171  0  0  0.398818  0  1.840656  0  0  0.476541  0.349331  0  1.911114  0
Ag  Ag1  1  0.23790898  0.05336940  0.07329116  1  0  0.514622  0  1.446697  0  0.57209  0  0.370023  0  1.88137  0  0  0.398936  0  1.839869  0  0  0.476534  0.349467  0  1.910289  0
Ag  Ag2  1  0.26201784  0.55335799  0.92677200  1  0  0.514574  0  1.447452  0  0.572459  0  0.369962  0  1.882372  0  0  0.398864  0  1.840855  0  0  0.476622  0.349405  0  1.911306  0
Ag  Ag3  1  0.23796705  0.94663901  0.42670347  1  0  0.514759  0  1.446495  0  0.572301  0  0.37007  0  1.881325  0  0  0.398997  0  1.839804  0  0  0.476537  0.349503  0  1.910263  0
Ag  Ag4  1  0.73794613  0.55336200  0.42674931  1  0  0.514486  0  1.447295  0  0.572343  0  0.369888  0  1.882114  0  0  0.398801  0  1.840595  0  0  0.476584  0.349325  0  1.911056  0
Ag  Ag5  1  0.76203618  0.94664181  0.92671578  1  0  0.514732  0  1.446676  0  0.572307  0  0.370047  0  1.881513  0  0  0.398964  0  1.840006  0  0  0.476571  0.349485  0  1.910428  0
Ag  Ag6  1  0.73792031  0.44664369  0.07320810  1  0  0.514461  0  1.447357  0  0.572442  0  0.369843  0  1.882196  0  0  0.398752  0  1.840677  0  0  0.476552  0.349291  0  1.911112  0
Ag  Ag7  1  0.76205266  0.05337307  0.57330684  1  0  0.514675  0  1.446541  0  0.572288  0  0.370048  0  1.881316  0  0  0.398964  0  1.839798  0  0  0.476518  0.349488  0  1.910234  0
H  H8  1  0.25520706  0.65366425  0.44768915  1  0  0.070802  0  0.924787  0  0.161204  0  0.084184  0  0.987356  0  0  0.0859  0  0.98384  0  0  0.126786  0.082811  0  0.990033  0
H  H9  1  0.24480456  0.84630694  0.94770303  1  0  0.070877  0  0.924672  0  0.161559  0  0.084177  0  0.987297  0  0  0.08596  0  0.983704  0  0  0.126741  0.082726  0  0.990055  0
H  H10  1  0.25516942  0.34631907  0.05233376  1  0  0.07081  0  0.924616  0  0.161012  0  0.084139  0  0.987268  0  0  0.085858  0  0.983745  0  0  0.126768  0.082693  0  0.99002  0
H  H11  1  0.24483144  0.15369419  0.55227568  1  0  0.070895  0  0.924556  0  0.161754  0  0.084259  0  0.987136  0  0  0.085981  0  0.983613  0  0  0.126752  0.082851  0  0.98985  0
H  H12  1  0.74478592  0.34634004  0.55232367  1  0  0.070831  0  0.924735  0  0.160962  0  0.08424  0  0.987244  0  0  0.085956  0  0.98373  0  0  0.12684  0.082867  0  0.989917  0
H  H13  1  0.75516594  0.15369302  0.05228462  1  0  0.070936  0  0.924553  0  0.161628  0  0.084252  0  0.987168  0  0  0.086013  0  0.983597  0  0  0.126746  0.082801  0  0.989928  0
H  H14  1  0.74478841  0.65367656  0.94766814  1  0  0.070949  0  0.924503  0  0.161022  0  0.084321  0  0.987035  0  0  0.086042  0  0.983508  0  0  0.126808  0.082879  0  0.989784  0
H  H15  1  0.75514328  0.84632998  0.44770861  1  0  0.070823  0  0.924625  0  0.16127  0  0.084172  0  0.987231  0  0  0.08589  0  0.983714  0  0  0.126775  0.082793  0  0.989917  0
H  H16  1  0.96760637  0.31690065  0.21242989  1  0  0.119803  0  0.973234  0  0.126443  0  0.128866  0  1.040866  0  0  0.132917  0  1.038967  0  0  0.099256  0.12595  0  1.042499  0
H  H17  1  0.53249206  0.18311420  0.71247838  1  0  0.119799  0  0.973168  0  0.12482  0  0.128868  0  1.040833  0  0  0.13292  0  1.038923  0  0  0.09923  0.125952  0  1.042469  0
H  H18  1  0.96750208  0.68312951  0.28757817  1  0  0.119592  0  0.973293  0  0.124574  0  0.128601  0  1.041113  0  0  0.132652  0  1.03921  0  0  0.099178  0.125708  0  1.042709  0
H  H19  1  0.53235332  0.81690564  0.78754055  1  0  0.119893  0  0.972989  0  0.125623  0  0.12891  0  1.040696  0  0  0.132979  0  1.038783  0  0  0.099191  0.125993  0  1.042337  0
H  H20  1  0.03237398  0.68307681  0.78753847  1  0  0.119917  0  0.972802  0  0.125538  0  0.128946  0  1.040496  0  0  0.133012  0  1.03859  0  0  0.099238  0.126029  0  1.042132  0
H  H21  1  0.46749670  0.81688230  0.28754031  1  0  0.119737  0  0.973168  0  0.125123  0  0.128803  0  1.040847  0  0  0.132856  0  1.038938  0  0  0.099223  0.125887  0  1.042485  0
H  H22  1  0.03245857  0.31687391  0.71241031  1  0  0.119677  0  0.973199  0  0.124568  0  0.128674  0  1.041027  0  0  0.132728  0  1.03912  0  0  0.099199  0.125772  0  1.042632  0
H  H23  1  0.46766075  0.18308481  0.21247479  1  0  0.119762  0  0.973107  0  0.125852  0  0.128792  0  1.040793  0  0  0.13286  0  1.038883  0  0  0.099099  0.125876  0  1.042433  0
H  H24  1  0.50082176  0.60256294  0.76073062  1  0  0.064256  0  0.954847  0  0.06725  0  0.077789  0  1.02202  0  0  0.08059  0  1.016751  0  0  0.105586  0.075655  0  1.026005  0
H  H25  1  0.99909355  0.89748642  0.26074221  1  0  0.064308  0  0.955072  0  0.065201  0  0.077883  0  1.022158  0  0  0.080689  0  1.01687  0  0  0.105585  0.07574  0  1.026153  0
H  H26  1  0.50088364  0.39745619  0.73929144  1  0  0.064309  0  0.954866  0  0.064876  0  0.07784  0  1.022035  0  0  0.080639  0  1.016771  0  0  0.105591  0.075707  0  1.026021  0
H  H27  1  0.99915488  0.10254099  0.23927449  1  0  0.064201  0  0.955042  0  0.066996  0  0.077777  0  1.022151  0  0  0.080574  0  1.016887  0  0  0.105531  0.075614  0  1.026169  0
H  H28  1  0.49918529  0.39743011  0.23928137  1  0  0.064349  0  0.954847  0  0.067628  0  0.077855  0  1.022037  0  0  0.080668  0  1.016737  0  0  0.105628  0.075671  0  1.026072  0
H  H29  1  0.00093882  0.10250316  0.73926727  1  0  0.064232  0  0.954957  0  0.064707  0  0.077909  0  1.021923  0  0  0.08071  0  1.016653  0  0  0.10557  0.075699  0  1.025992  0
H  H30  1  0.49914169  0.60253080  0.26072391  1  0  0.06434  0  0.95478  0  0.065504  0  0.07782  0  1.022005  0  0  0.080619  0  1.016741  0  0  0.10556  0.075687  0  1.025989  0
H  H31  1  0.00084514  0.89743994  0.76073079  1  0  0.064218  0  0.954915  0  0.067155  0  0.07774  0  1.022076  0  0  0.080556  0  1.016759  0  0  0.105561  0.075552  0  1.026134  0
C  C32  1  0.31906309  0.69111734  0.52284978  1  0  0.292269  0  3.78125  0  1.099211  0  0.235471  0  4.045164  0  0  0.255889  0  4.058207  0  0  0.159601  0.221786  0  4.035917  0
C  C33  1  0.18088144  0.80888795  0.02286309  1  0  0.291915  0  3.78193  0  1.098225  0  0.235209  0  4.045867  0  0  0.255568  0  4.0589  0  0  0.159491  0.221591  0  4.036629  0
C  C34  1  0.31906597  0.30888492  0.97716828  1  0  0.292288  0  3.781164  0  1.099269  0  0.235525  0  4.045007  0  0  0.255938  0  4.058047  0  0  0.15957  0.221907  0  4.035766  0
C  C35  1  0.18089789  0.19112452  0.47713473  1  0  0.292349  0  3.781382  0  1.098373  0  0.235564  0  4.045285  0  0  0.255964  0  4.058314  0  0  0.159769  0.221913  0  4.036045  0
C  C36  1  0.68091160  0.30889646  0.47716639  1  0  0.292127  0  3.780942  0  1.098486  0  0.23534  0  4.044904  0  0  0.255748  0  4.057928  0  0  0.159556  0.221664  0  4.035661  0
C  C37  1  0.81913546  0.19111287  0.97714135  1  0  0.291979  0  3.781621  0  1.098745  0  0.235226  0  4.045523  0  0  0.255612  0  4.058568  0  0  0.159555  0.221601  0  4.036284  0
C  C38  1  0.68090311  0.69111677  0.02283782  1  0  0.292079  0  3.78135  0  1.098818  0  0.235362  0  4.045212  0  0  0.255771  0  4.058252  0  0  0.159648  0.22174  0  4.035971  0
C  C39  1  0.81910075  0.80889446  0.52283950  1  0  0.292386  0  3.780715  0  1.098388  0  0.235684  0  4.044592  0  0  0.256093  0  4.057619  0  0  0.159728  0.222004  0  4.035358  0
C  C40  1  0.08988602  0.35810291  0.37553828  1  0  0.551071  0  3.880545  0  1.276839  0  0.519314  0  4.137667  0  0  0.547454  0  4.143931  0  0  0.195361  0.500695  0  4.132429  0
C  C41  1  0.41011008  0.14190224  0.87556463  1  0  0.550766  0  3.881104  0  1.276284  0  0.519186  0  4.137924  0  0  0.547332  0  4.144191  0  0  0.195419  0.500566  0  4.132692  0
C  C42  1  0.08984491  0.64191627  0.12447176  1  0  0.551055  0  3.880705  0  1.277611  0  0.519243  0  4.137946  0  0  0.547421  0  4.144162  0  0  0.195515  0.5006  0  4.132749  0
C  C43  1  0.41005189  0.85810802  0.62444707  1  0  0.550632  0  3.880836  0  1.276509  0  0.519162  0  4.137508  0  0  0.547306  0  4.143777  0  0  0.195304  0.500543  0  4.132274  0
C  C44  1  0.91012809  0.64190310  0.62442337  1  0  0.550728  0  3.881201  0  1.276933  0  0.519308  0  4.137789  0  0  0.547467  0  4.144031  0  0  0.195296  0.500668  0  4.132593  0
C  C45  1  0.58988009  0.85809340  0.12445238  1  0  0.550832  0  3.881075  0  1.276696  0  0.519207  0  4.137989  0  0  0.547349  0  4.144254  0  0  0.195402  0.500565  0  4.132793  0
C  C46  1  0.91021277  0.35808023  0.87554107  1  0  0.55092  0  3.881371  0  1.276751  0  0.519219  0  4.138377  0  0  0.547406  0  4.144594  0  0  0.195414  0.500573  0  4.133181  0
C  C47  1  0.58995515  0.14189194  0.37557582  1  0  0.550685  0  3.880872  0  1.27626  0  0.51926  0  4.137452  0  0  0.547404  0  4.143714  0  0  0.195294  0.500628  0  4.132239  0
C  C48  1  0.02891030  0.28063572  0.28842714  1  0  -0.277099  0  3.681333  0  -0.070737  0  -0.285107  0  3.921988  0  0  -0.302268  0  3.945559  0  0  -0.105563  -0.274132  0  3.906131  0
C  C49  1  0.47119985  0.21937933  0.78849289  1  0  -0.277024  0  3.681063  0  -0.067906  0  -0.285067  0  3.921587  0  0  -0.302232  0  3.945163  0  0  -0.105657  -0.27409  0  3.905732  0
C  C50  1  0.02883056  0.71938819  0.21157976  1  0  -0.27669  0  3.6809  0  -0.06819  0  -0.284623  0  3.921427  0  0  -0.301799  0  3.945004  0  0  -0.105478  -0.27361  0  3.905506  0
C  C51  1  0.47109988  0.78063485  0.71152534  1  0  -0.277316  0  3.68101  0  -0.069782  0  -0.285336  0  3.921484  0  0  -0.302523  0  3.94507  0  0  -0.105689  -0.274349  0  3.905605  0
C  C52  1  0.97111226  0.71936423  0.71153619  1  0  -0.277266  0  3.681241  0  -0.069662  0  -0.285354  0  3.921776  0  0  -0.302552  0  3.945365  0  0  -0.105707  -0.274346  0  3.905864  0
C  C53  1  0.52881844  0.78061371  0.21153001  1  0  -0.276921  0  3.68107  0  -0.068722  0  -0.284924  0  3.921552  0  0  -0.302086  0  3.945126  0  0  -0.10556  -0.273948  0  3.90572  0
C  C54  1  0.97117509  0.28060485  0.78842048  1  0  -0.276743  0  3.68094  0  -0.06794  0  -0.284713  0  3.921506  0  0  -0.301891  0  3.945067  0  0  -0.105435  -0.273715  0  3.905612  0
C  C55  1  0.52890717  0.21935301  0.28849168  1  0  -0.277207  0  3.681127  0  -0.070035  0  -0.285252  0  3.921619  0  0  -0.302443  0  3.945215  0  0  -0.105601  -0.274263  0  3.90574  0
C  C56  1  0.45169717  0.66370516  0.69715405  1  0  0.144977  0  3.785714  0  0.425406  0  0.111104  0  4.036417  0  0  0.123102  0  4.055244  0  0  0.029368  0.10341  0  4.023398  0
C  C57  1  0.04823850  0.83631325  0.19718804  1  0  0.144625  0  3.786277  0  0.42514  0  0.110755  0  4.036973  0  0  0.122741  0  4.055789  0  0  0.029266  0.103074  0  4.02397  0
C  C58  1  0.45174751  0.33630718  0.80286202  1  0  0.144859  0  3.785448  0  0.425313  0  0.11098  0  4.036203  0  0  0.122974  0  4.055023  0  0  0.029356  0.103289  0  4.023187  0
C  C59  1  0.04833209  0.16371250  0.30281261  1  0  0.145017  0  3.786204  0  0.431555  0  0.111129  0  4.036905  0  0  0.123117  0  4.055714  0  0  0.02945  0.103465  0  4.023889  0
C  C60  1  0.54834645  0.33628788  0.30284703  1  0  0.144837  0  3.78582  0  0.425202  0  0.111007  0  4.03651  0  0  0.122994  0  4.055336  0  0  0.029326  0.103362  0  4.023497  0
C  C61  1  0.95174606  0.16368325  0.80280716  1  0  0.144874  0  3.786329  0  0.425419  0  0.11088  0  4.03703  0  0  0.122876  0  4.055855  0  0  0.029313  0.10324  0  4.024025  0
C  C62  1  0.54825813  0.66368759  0.19715164  1  0  0.144871  0  3.785697  0  0.42433  0  0.111044  0  4.036445  0  0  0.123038  0  4.055262  0  0  0.029431  0.103354  0  4.023435  0
C  C63  1  0.95163418  0.83628400  0.69718008  1  0  0.145025  0  3.786311  0  0.432009  0  0.111228  0  4.036989  0  0  0.123221  0  4.055812  0  0  0.029409  0.103575  0  4.023981  0
N  N64  1  0.37280576  0.61649419  0.60326870  1  0  -0.410673  0  3.374841  0  -1.257326  0  -0.321777  0  3.672299  0  0  -0.348655  0  3.68725  0  0  -0.384341  -0.303314  0  3.661338  0
N  N65  1  0.12712790  0.88351687  0.10329550  1  0  -0.410355  0  3.375438  0  -1.256847  0  -0.321518  0  3.672811  0  0  -0.348376  0  3.687788  0  0  -0.384162  -0.303062  0  3.661825  0
N  N66  1  0.37282624  0.38351421  0.89675349  1  0  -0.410698  0  3.374781  0  -1.2568  0  -0.32183  0  3.672225  0  0  -0.348702  0  3.687184  0  0  -0.384322  -0.303378  0  3.661252  0
N  N67  1  0.12717942  0.11649638  0.39670322  1  0  -0.41083  0  3.375263  0  -1.263111  0  -0.321927  0  3.672654  0  0  -0.34878  0  3.687599  0  0  -0.38439  -0.303468  0  3.661675  0
N  N68  1  0.62719144  0.38351182  0.39673993  1  0  -0.410472  0  3.374798  0  -1.256723  0  -0.321656  0  3.6723  0  0  -0.348498  0  3.687228  0  0  -0.384345  -0.303206  0  3.661329  0
N  N69  1  0.87288337  0.11648049  0.89670642  1  0  -0.41052  0  3.375387  0  -1.257167  0  -0.321561  0  3.672688  0  0  -0.348455  0  3.687694  0  0  -0.384178  -0.303074  0  3.661648  0
N  N70  1  0.62715971  0.61648402  0.10325346  1  0  -0.410615  0  3.375089  0  -1.256129  0  -0.321784  0  3.672556  0  0  -0.348653  0  3.68751  0  0  -0.384365  -0.30333  0  3.66158  0
N  N71  1  0.87282343  0.88351223  0.60328778  1  0  -0.410862  0  3.375044  0  -1.263427  0  -0.322087  0  3.672535  0  0  -0.348939  0  3.687465  0  0  -0.38436  -0.303632  0  3.661567  0
N  N72  1  0.33490800  0.80528441  0.52797151  1  0  -0.478126  0  3.251897  0  -1.258064  0  -0.384154  0  3.532202  0  0  -0.414332  0  3.5458  0  0  -0.375034  -0.363294  0  3.521896  0
N  N73  1  0.16505637  0.69472345  0.02800660  1  0  -0.478319  0  3.252666  0  -1.257972  0  -0.38422  0  3.533049  0  0  -0.414418  0  3.546683  0  0  -0.3751  -0.363336  0  3.522675  0
N  N74  1  0.33490710  0.19471863  0.97203494  1  0  -0.478294  0  3.252211  0  -1.258128  0  -0.384224  0  3.532441  0  0  -0.414406  0  3.546048  0  0  -0.375014  -0.363346  0  3.522068  0
N  N75  1  0.16510163  0.30529169  0.47198773  1  0  -0.478622  0  3.252719  0  -1.258104  0  -0.384475  0  3.533003  0  0  -0.414681  0  3.546677  0  0  -0.375255  -0.363597  0  3.522646  0
N  N76  1  0.66510890  0.19472766  0.47203795  1  0  -0.478113  0  3.251836  0  -1.257482  0  -0.384153  0  3.532117  0  0  -0.414326  0  3.545707  0  0  -0.375017  -0.363285  0  3.521802  0
N  N77  1  0.83492678  0.30527823  0.97198608  1  0  -0.478238  0  3.25284  0  -1.257739  0  -0.38418  0  3.533217  0  0  -0.414371  0  3.54682  0  0  -0.375089  -0.363306  0  3.522871  0
N  N78  1  0.66505073  0.80527787  0.02797033  1  0  -0.478378  0  3.252466  0  -1.258166  0  -0.384357  0  3.532755  0  0  -0.414547  0  3.546395  0  0  -0.375192  -0.363474  0  3.522389  0
N  N79  1  0.83489138  0.69472556  0.52798315  1  0  -0.478158  0  3.252079  0  -1.257721  0  -0.384224  0  3.532349  0  0  -0.414416  0  3.545969  0  0  -0.375115  -0.363342  0  3.522007  0
O  O80  1  0.08037998  0.46641387  0.37243161  1  0  -0.591414  0  1.975016  0  -1.14156  0  -0.53535  0  2.222013  0  0  -0.559168  0  2.211984  0  0  -0.327452  -0.518698  0  2.228495  0
O  O81  1  0.41963998  0.03359750  0.87245057  1  0  -0.591489  0  1.975436  0  -1.14172  0  -0.535478  0  2.222358  0  0  -0.559304  0  2.212335  0  0  -0.327515  -0.518811  0  2.228801  0
O  O82  1  0.08032077  0.53360830  0.12758286  1  0  -0.591612  0  1.975214  0  -1.142434  0  -0.535491  0  2.222222  0  0  -0.559325  0  2.212172  0  0  -0.327662  -0.518832  0  2.228703  0
O  O83  1  0.41958735  0.96641410  0.62753908  1  0  -0.591318  0  1.975517  0  -1.141356  0  -0.535306  0  2.222365  0  0  -0.559132  0  2.212335  0  0  -0.32732  -0.51863  0  2.228791  0
O  O84  1  0.91965805  0.53359733  0.62752165  1  0  -0.591401  0  1.975757  0  -1.142004  0  -0.535382  0  2.222536  0  0  -0.55921  0  2.212488  0  0  -0.327339  -0.518716  0  2.229008  0
O  O85  1  0.58036566  0.96639987  0.12756058  1  0  -0.591546  0  1.97542  0  -1.141657  0  -0.535487  0  2.222309  0  0  -0.559313  0  2.212288  0  0  -0.3275  -0.518799  0  2.228733  0
O  O86  1  0.91977348  0.46638562  0.87243333  1  0  -0.591634  0  1.97577  0  -1.142448  0  -0.535618  0  2.2229  0  0  -0.559432  0  2.212791  0  0  -0.327667  -0.518936  0  2.229346  0
O  O87  1  0.58043235  0.03358241  0.37248549  1  0  -0.59135  0  1.975333  0  -1.141548  0  -0.53539  0  2.222211  0  0  -0.559217  0  2.212171  0  0  -0.327315  -0.518705  0  2.228641  0
