# generated using pymatgen
data_GdH6C5O8
_symmetry_space_group_name_H-M   'P 1'
_cell_length_a   9.51388918
_cell_length_b   9.51394598
_cell_length_c   13.86365224
_cell_angle_alpha   100.05072819
_cell_angle_beta   100.04574576
_cell_angle_gamma   119.38327093
_symmetry_Int_Tables_number   1
_chemical_formula_structural   GdH6C5O8
_chemical_formula_sum   'Gd4 H24 C20 O32'
_cell_volume   1026.00376720
_cell_formula_units_Z   4
loop_
 _symmetry_equiv_pos_site_id
 _symmetry_equiv_pos_as_xyz
  1  'x, y, z'
loop_
 _atom_site_type_symbol
 _atom_site_label
 _atom_site_symmetry_multiplicity
 _atom_site_fract_x
 _atom_site_fract_y
 _atom_site_fract_z
 _atom_site_occupancy
 _atom_site_hle17_bader_spin_density
 _atom_site_hle17_ddec_charge
 _atom_site_hle17_ddec_spin_density
 _atom_site_hle17_ddec_sum_bond_order
 _atom_site_hle17_magmom
 _atom_site_hse06_10hf_bader_spin_density
 _atom_site_hse06_10hf_ddec_charge
 _atom_site_hse06_10hf_ddec_spin_density
 _atom_site_hse06_10hf_ddec_sum_bond_order
 _atom_site_hse06_10hf_magmom
 _atom_site_hse06_bader_spin_density
 _atom_site_hse06_ddec_charge
 _atom_site_hse06_ddec_spin_density
 _atom_site_hse06_ddec_sum_bond_order
 _atom_site_hse06_magmom
 _atom_site_pbe_bader_spin_density
 _atom_site_pbe_cm5_charge
 _atom_site_pbe_ddec_charge
 _atom_site_pbe_ddec_spin_density
 _atom_site_pbe_ddec_sum_bond_order
 _atom_site_pbe_magmom
Gd  Gd0  1  0.74732785  0.99731664  0.99470073  1  0  2.219255  0  1.78065  0  0  2.133683  0  2.131518  0  0  2.183996  0  2.08165  0  0  1.460757  2.091515  0  2.17662  0
Gd  Gd1  1  0.50267995  0.75268980  0.50530447  1  0  2.219166  0  1.780853  0  0  2.133732  0  2.131497  0  0  2.183968  0  2.081744  0  0  1.460809  2.09155  0  2.176643  0
Gd  Gd2  1  0.25268176  0.00268498  0.00530421  1  0  2.219277  0  1.780695  0  0  2.133728  0  2.13153  0  0  2.184021  0  2.081693  0  0  1.460778  2.091585  0  2.176602  0
Gd  Gd3  1  0.49730242  0.24730454  0.49469360  1  0  2.219254  0  1.780803  0  0  2.133563  0  2.13186  0  0  2.183894  0  2.081958  0  0  1.460758  2.09142  0  2.176922  0
H  H4  1  0.56920484  0.96023527  0.15914743  1  0  0.438534  0  0.861103  0  0  0.406328  0  0.926533  0  0  0.418366  0  0.908828  0  0  0.300288  0.397729  0  0.939161  0
H  H5  1  0.08957644  0.19814606  0.15940382  1  0  0.439047  0  0.860509  0  0  0.406654  0  0.926312  0  0  0.418667  0  0.908639  0  0  0.299842  0.398049  0  0.938951  0
H  H6  1  0.53974826  0.93078414  0.34083947  1  0  0.438583  0  0.861006  0  0  0.406325  0  0.926502  0  0  0.418359  0  0.908803  0  0  0.300323  0.397725  0  0.939131  0
H  H7  1  0.30185033  0.41041935  0.34060198  1  0  0.43906  0  0.860474  0  0  0.406744  0  0.926153  0  0  0.418735  0  0.908505  0  0  0.299892  0.398152  0  0.93878  0
H  H8  1  0.43079926  0.03976608  0.84085324  1  0  0.438585  0  0.861043  0  0  0.406372  0  0.926475  0  0  0.41841  0  0.908769  0  0  0.300308  0.397771  0  0.939106  0
H  H9  1  0.91042244  0.80185136  0.84059506  1  0  0.439102  0  0.860423  0  0  0.406732  0  0.926178  0  0  0.418743  0  0.908507  0  0  0.299878  0.398126  0  0.938816  0
H  H10  1  0.46024431  0.06920931  0.65915751  1  0  0.438579  0  0.861015  0  0  0.406344  0  0.926482  0  0  0.418381  0  0.908779  0  0  0.300318  0.397744  0  0.939112  0
H  H11  1  0.69814256  0.58957670  0.65940110  1  0  0.439026  0  0.860525  0  0  0.406655  0  0.926279  0  0  0.418663  0  0.908615  0  0  0.299822  0.39805  0  0.938915  0
H  H12  1  0.73235763  0.96267179  0.21344856  1  0  0.429896  0  0.822694  0  0  0.416322  0  0.871025  0  0  0.424575  0  0.858911  0  0  0.32907  0.410286  0  0.879565  0
H  H13  1  0.98086466  0.25040561  0.21372839  1  0  0.430451  0  0.822716  0  0  0.416757  0  0.870484  0  0  0.424997  0  0.85839  0  0  0.329209  0.410721  0  0.879372  0
H  H14  1  0.53732549  0.76762578  0.28655058  1  0  0.429775  0  0.822746  0  0  0.416191  0  0.871176  0  0  0.424443  0  0.859065  0  0  0.329022  0.410157  0  0.879632  0
H  H15  1  0.24958536  0.51911309  0.28627545  1  0  0.430416  0  0.822796  0  0  0.416737  0  0.870524  0  0  0.424975  0  0.858431  0  0  0.32919  0.410702  0  0.87941  0
H  H16  1  0.26766141  0.03735479  0.78654881  1  0  0.429866  0  0.822819  0  0  0.416259  0  0.871126  0  0  0.424513  0  0.859011  0  0  0.329084  0.410226  0  0.879729  0
H  H17  1  0.01915520  0.74961617  0.78627574  1  0  0.430446  0  0.822832  0  0  0.416755  0  0.870507  0  0  0.425  0  0.858408  0  0  0.329234  0.410721  0  0.879393  0
H  H18  1  0.46270130  0.23238873  0.71344918  1  0  0.429762  0  0.822758  0  0  0.416202  0  0.871163  0  0  0.424457  0  0.859046  0  0  0.328973  0.410168  0  0.879613  0
H  H19  1  0.75043778  0.48089635  0.71372475  1  0  0.430474  0  0.822738  0  0  0.416771  0  0.870476  0  0  0.425017  0  0.858376  0  0  0.329207  0.410736  0  0.879365  0
H  H20  1  0.09315547  0.52791030  0.93345759  1  0  0.132874  0  0.931717  0  0  0.13863  0  0.993462  0  0  0.143487  0  0.990162  0  0  0.116428  0.135143  0  0.996004  0
H  H21  1  0.34047316  0.40576595  0.93369173  1  0  0.133016  0  0.931025  0  0  0.139225  0  0.9924  0  0  0.143995  0  0.989218  0  0  0.116328  0.135757  0  0.994926  0
H  H22  1  0.97209043  0.40685742  0.56654550  1  0  0.132845  0  0.931743  0  0  0.138612  0  0.993466  0  0  0.143468  0  0.990169  0  0  0.116404  0.135125  0  0.996005  0
H  H23  1  0.09424546  0.15955470  0.56632929  1  0  0.133037  0  0.931063  0  0  0.139261  0  0.992393  0  0  0.144046  0  0.989192  0  0  0.116289  0.135771  0  0.994943  0
H  H24  1  0.90686714  0.47210193  0.06656090  1  0  0.132753  0  0.931649  0  0  0.138592  0  0.993343  0  0  0.14345  0  0.990042  0  0  0.116348  0.135103  0  0.995884  0
H  H25  1  0.65953091  0.59422287  0.06630171  1  0  0.133009  0  0.93094  0  0  0.13919  0  0.992332  0  0  0.143979  0  0.989126  0  0  0.116241  0.135701  0  0.994882  0
H  H26  1  0.02789038  0.59312559  0.43344530  1  0  0.13279  0  0.931702  0  0  0.138596  0  0.993381  0  0  0.143453  0  0.990082  0  0  0.116363  0.135109  0  0.995921  0
H  H27  1  0.90575819  0.84045411  0.43367363  1  0  0.133068  0  0.930951  0  0  0.139292  0  0.992303  0  0  0.144063  0  0.98912  0  0  0.116285  0.135802  0  0.99485  0
C  C28  1  0.35691748  0.70075495  0.93921056  1  0  0.748702  0  3.859634  0  0  0.713239  0  4.141509  0  0  0.748853  0  4.129821  0  0  0.228627  0.689045  0  4.148121  0
C  C29  1  0.08231953  0.23866587  0.93935152  1  0  0.749268  0  3.857036  0  0  0.711669  0  4.142762  0  0  0.747322  0  4.13107  0  0  0.228148  0.687455  0  4.149369  0
C  C30  1  0.79925097  0.14309152  0.56078433  1  0  0.748855  0  3.859386  0  0  0.713242  0  4.141501  0  0  0.748856  0  4.129811  0  0  0.228681  0.689048  0  4.148111  0
C  C31  1  0.26136146  0.41769813  0.56066698  1  0  0.750064  0  3.855566  0  0  0.712201  0  4.141715  0  0  0.747834  0  4.13005  0  0  0.228405  0.687985  0  4.148321  0
C  C32  1  0.64309027  0.29924524  0.06078751  1  0  0.748763  0  3.859571  0  0  0.713133  0  4.141733  0  0  0.748746  0  4.130044  0  0  0.228579  0.68894  0  4.148349  0
C  C33  1  0.91767968  0.76133021  0.06064148  1  0  0.749461  0  3.857182  0  0  0.711965  0  4.14274  0  0  0.747618  0  4.131041  0  0  0.228289  0.68775  0  4.149349  0
C  C34  1  0.20074549  0.85690328  0.43921181  1  0  0.748739  0  3.859329  0  0  0.713091  0  4.141478  0  0  0.748706  0  4.129793  0  0  0.228635  0.688897  0  4.148088  0
C  C35  1  0.73862635  0.58230265  0.43933390  1  0  0.750109  0  3.855438  0  0  0.712116  0  4.141815  0  0  0.747734  0  4.130178  0  0  0.228439  0.687901  0  4.148423  0
C  C36  1  0.21023186  0.53356945  0.93224183  1  0  -0.157492  0  3.625165  0  0  -0.176011  0  3.870011  0  0  -0.182114  0  3.884499  0  0  -0.071906  -0.172067  0  3.860487  0
C  C37  1  0.22212269  0.39886806  0.93232568  1  0  -0.158688  0  3.622444  0  0  -0.177275  0  3.868194  0  0  -0.183333  0  3.88271  0  0  -0.07217  -0.173342  0  3.858666  0
C  C38  1  0.96642151  0.28976657  0.56775890  1  0  -0.157497  0  3.625178  0  0  -0.175957  0  3.870033  0  0  -0.182068  0  3.884531  0  0  -0.071928  -0.172009  0  3.860497  0
C  C39  1  0.10114513  0.27789996  0.56768872  1  0  -0.159004  0  3.622076  0  0  -0.177536  0  3.867901  0  0  -0.183599  0  3.88241  0  0  -0.07213  -0.173582  0  3.858385  0
C  C40  1  0.78976002  0.46642039  0.06776258  1  0  -0.157415  0  3.624694  0  0  -0.175995  0  3.869623  0  0  -0.182103  0  3.884121  0  0  -0.071837  -0.172047  0  3.860091  0
C  C41  1  0.77788830  0.60113847  0.06767421  1  0  -0.158791  0  3.622038  0  0  -0.177346  0  3.867776  0  0  -0.183424  0  3.882281  0  0  -0.072107  -0.173393  0  3.858259  0
C  C42  1  0.03356046  0.71021656  0.43223566  1  0  -0.157467  0  3.625237  0  0  -0.175897  0  3.870062  0  0  -0.182004  0  3.884556  0  0  -0.071899  -0.17195  0  3.860526  0
C  C43  1  0.89884572  0.72209843  0.43231079  1  0  -0.159063  0  3.622088  0  0  -0.177602  0  3.868011  0  0  -0.183651  0  3.882533  0  0  -0.072168  -0.173647  0  3.858489  0
C  C44  1  0.67199068  0.82799823  0.74999194  1  0  0.590367  0  3.864363  0  0  0.542092  0  4.165057  0  0  0.572915  0  4.155074  0  0  0.238335  0.521115  0  4.17076  0
C  C45  1  0.57797874  0.92202524  0.75000213  1  0  0.587538  0  3.869234  0  0  0.541143  0  4.168085  0  0  0.571911  0  4.15817  0  0  0.237873  0.520208  0  4.173726  0
C  C46  1  0.32800155  0.17199029  0.25000731  1  0  0.590409  0  3.863969  0  0  0.541998  0  4.164794  0  0  0.572865  0  4.154774  0  0  0.238329  0.52102  0  4.170498  0
C  C47  1  0.42204684  0.07799931  0.25000731  1  0  0.587272  0  3.869646  0  0  0.541077  0  4.16821  0  0  0.571783  0  4.158365  0  0  0.237788  0.520147  0  4.17385  0
O  O48  1  0.33518305  0.82442179  0.95136331  1  0  -0.770719  0  2.078589  0  0  -0.730422  0  2.334905  0  0  -0.756834  0  2.321443  0  0  -0.425939  -0.710591  0  2.343189  0
O  O49  1  0.11630941  0.12724634  0.95163377  1  0  -0.770879  0  2.078699  0  0  -0.72968  0  2.335882  0  0  -0.756037  0  2.322256  0  0  -0.425429  -0.70989  0  2.344275  0
O  O50  1  0.67556908  0.16480648  0.54862161  1  0  -0.770837  0  2.078608  0  0  -0.730449  0  2.334951  0  0  -0.756868  0  2.321487  0  0  -0.425926  -0.710609  0  2.343226  0
O  O51  1  0.37277619  0.38368971  0.54839881  1  0  -0.77112  0  2.078176  0  0  -0.729829  0  2.335549  0  0  -0.756182  0  2.321921  0  0  -0.425601  -0.710035  0  2.343942  0
O  O52  1  0.66482758  0.17558605  0.04864102  1  0  -0.770737  0  2.078565  0  0  -0.730371  0  2.334946  0  0  -0.756786  0  2.321484  0  0  -0.425892  -0.710536  0  2.343232  0
O  O53  1  0.88369706  0.87275528  0.04837730  1  0  -0.77095  0  2.078815  0  0  -0.729796  0  2.335975  0  0  -0.756154  0  2.32234  0  0  -0.425564  -0.710002  0  2.344369  0
O  O54  1  0.32441576  0.83517180  0.45137343  1  0  -0.770674  0  2.078511  0  0  -0.730349  0  2.334922  0  0  -0.75676  0  2.321477  0  0  -0.42588  -0.710506  0  2.343203  0
O  O55  1  0.62722374  0.61632018  0.45160308  1  0  -0.771067  0  2.078103  0  0  -0.7298  0  2.33558  0  0  -0.756133  0  2.321968  0  0  -0.425637  -0.710004  0  2.343979  0
O  O56  1  0.65133358  0.92709548  0.14706280  1  0  -0.886065  0  1.853889  0  0  -0.850322  0  2.02859  0  0  -0.868378  0  1.996933  0  0  -0.614011  -0.836755  0  2.050797  0
O  O57  1  0.99498281  0.21864281  0.14730132  1  0  -0.886987  0  1.854169  0  0  -0.851018  0  2.028407  0  0  -0.869013  0  1.996728  0  0  -0.613694  -0.837452  0  2.051026  0
O  O58  1  0.57289396  0.84866463  0.35293267  1  0  -0.885963  0  1.853822  0  0  -0.85017  0  2.028711  0  0  -0.868205  0  1.997054  0  0  -0.613989  -0.836606  0  2.050851  0
O  O59  1  0.28134630  0.50501700  0.35270644  1  0  -0.886972  0  1.854267  0  0  -0.851062  0  2.028374  0  0  -0.86903  0  1.996756  0  0  -0.613691  -0.837511  0  2.050956  0
O  O60  1  0.34866272  0.07289688  0.85293520  1  0  -0.886104  0  1.853937  0  0  -0.850317  0  2.028644  0  0  -0.868372  0  1.996994  0  0  -0.614062  -0.836745  0  2.050908  0
O  O61  1  0.00502027  0.78135233  0.85270067  1  0  -0.88705  0  1.854194  0  0  -0.851094  0  2.028377  0  0  -0.869094  0  1.996704  0  0  -0.613735  -0.837532  0  2.050996  0
O  O62  1  0.42709780  0.15133133  0.64706811  1  0  -0.885971  0  1.853824  0  0  -0.8502  0  2.028631  0  0  -0.868256  0  1.996976  0  0  -0.613931  -0.836629  0  2.050745  0
O  O63  1  0.71863612  0.49497739  0.64729379  1  0  -0.886981  0  1.854207  0  0  -0.85097  0  2.0284  0  0  -0.868987  0  1.996746  0  0  -0.613627  -0.837406  0  2.051011  0
O  O64  1  0.49686295  0.71788829  0.93629197  1  0  -0.698391  0  1.974872  0  0  -0.662632  0  2.206583  0  0  -0.68823  0  2.196364  0  0  -0.380284  -0.644158  0  2.213117  0
O  O65  1  0.93935548  0.21851281  0.93634708  1  0  -0.698456  0  1.973768  0  0  -0.661987  0  2.206432  0  0  -0.68761  0  2.19626  0  0  -0.380276  -0.643495  0  2.21294  0
O  O66  1  0.78212874  0.00314806  0.56369878  1  0  -0.698308  0  1.974534  0  0  -0.662512  0  2.206302  0  0  -0.688099  0  2.196088  0  0  -0.38024  -0.644035  0  2.212834  0
O  O67  1  0.28149544  0.56064785  0.56364919  1  0  -0.698766  0  1.973457  0  0  -0.662222  0  2.206267  0  0  -0.687826  0  2.196102  0  0  -0.38034  -0.643728  0  2.212782  0
O  O68  1  0.50314535  0.28211307  0.06370125  1  0  -0.698326  0  1.97478  0  0  -0.66251  0  2.206573  0  0  -0.688104  0  2.196355  0  0  -0.380253  -0.64404  0  2.213107  0
O  O69  1  0.06064130  0.78148689  0.06364534  1  0  -0.698521  0  1.973836  0  0  -0.662101  0  2.206482  0  0  -0.687719  0  2.196305  0  0  -0.38031  -0.643613  0  2.212993  0
O  O70  1  0.21786704  0.99685168  0.43629785  1  0  -0.698269  0  1.974587  0  0  -0.66243  0  2.206381  0  0  -0.688032  0  2.196167  0  0  -0.380225  -0.643954  0  2.212907  0
O  O71  1  0.71847498  0.43934606  0.43634816  1  0  -0.698839  0  1.973494  0  0  -0.662212  0  2.206394  0  0  -0.687823  0  2.196234  0  0  -0.380369  -0.643722  0  2.212908  0
O  O72  1  0.75734375  0.84325193  0.83644477  1  0  -0.641798  0  2.12468  0  0  -0.592716  0  2.355424  0  0  -0.617904  0  2.34596  0  0  -0.33178  -0.574622  0  2.361519  0
O  O73  1  0.57902264  0.99314520  0.83646037  1  0  -0.64066  0  2.12692  0  0  -0.59224  0  2.356952  0  0  -0.617397  0  2.347503  0  0  -0.331391  -0.574178  0  2.363028  0
O  O74  1  0.65675004  0.74265854  0.66355533  1  0  -0.641646  0  2.125667  0  0  -0.592566  0  2.356394  0  0  -0.617733  0  2.346931  0  0  -0.331644  -0.574478  0  2.362494  0
O  O75  1  0.50687417  0.92099376  0.66356425  1  0  -0.640562  0  2.127171  0  0  -0.592154  0  2.357236  0  0  -0.617286  0  2.347782  0  0  -0.331471  -0.574101  0  2.363321  0
O  O76  1  0.24266518  0.15676315  0.16355300  1  0  -0.641786  0  2.124383  0  0  -0.592659  0  2.355184  0  0  -0.617854  0  2.345703  0  0  -0.331781  -0.574569  0  2.361277  0
O  O77  1  0.42097609  0.00686851  0.16354904  1  0  -0.640645  0  2.126865  0  0  -0.592267  0  2.356794  0  0  -0.6174  0  2.347372  0  0  -0.331453  -0.57421  0  2.362867  0
O  O78  1  0.34324460  0.25733258  0.33644594  1  0  -0.641653  0  2.125459  0  0  -0.592553  0  2.356262  0  0  -0.617737  0  2.346779  0  0  -0.331689  -0.574472  0  2.36236  0
O  O79  1  0.49311660  0.07899602  0.33643858  1  0  -0.640374  0  2.12749  0  0  -0.591987  0  2.357445  0  0  -0.617118  0  2.348029  0  0  -0.331317  -0.573933  0  2.363517  0
