# generated using pymatgen
data_H7PbC10N3O5
_symmetry_space_group_name_H-M   'P 1'
_cell_length_a   6.81805406
_cell_length_b   12.25421806
_cell_length_c   13.71496064
_cell_angle_alpha   112.86536511
_cell_angle_beta   90.00456431
_cell_angle_gamma   89.99893969
_symmetry_Int_Tables_number   1
_chemical_formula_structural   H7PbC10N3O5
_chemical_formula_sum   'H28 Pb4 C40 N12 O20'
_cell_volume   1055.84084807
_cell_formula_units_Z   4
loop_
 _symmetry_equiv_pos_site_id
 _symmetry_equiv_pos_as_xyz
  1  'x, y, z'
loop_
 _atom_site_type_symbol
 _atom_site_label
 _atom_site_symmetry_multiplicity
 _atom_site_fract_x
 _atom_site_fract_y
 _atom_site_fract_z
 _atom_site_occupancy
 _atom_site_hle17_bader_spin_density
 _atom_site_hle17_ddec_charge
 _atom_site_hle17_ddec_spin_density
 _atom_site_hle17_ddec_sum_bond_order
 _atom_site_hle17_magmom
 _atom_site_hse06_10hf_bader_spin_density
 _atom_site_hse06_10hf_ddec_charge
 _atom_site_hse06_10hf_ddec_spin_density
 _atom_site_hse06_10hf_ddec_sum_bond_order
 _atom_site_hse06_10hf_magmom
 _atom_site_hse06_bader_spin_density
 _atom_site_hse06_ddec_charge
 _atom_site_hse06_ddec_spin_density
 _atom_site_hse06_ddec_sum_bond_order
 _atom_site_hse06_magmom
 _atom_site_pbe_bader_charge
 _atom_site_pbe_bader_spin_density
 _atom_site_pbe_cm5_charge
 _atom_site_pbe_ddec_charge
 _atom_site_pbe_ddec_spin_density
 _atom_site_pbe_ddec_sum_bond_order
 _atom_site_pbe_magmom
H  H0  1  0.36691194  0.59859343  0.51366439  1  0  0.432334  0  0.869822  0  0  0.397648  0  0.938854  0  0  0.409867  0  0.921182  0  0.650078  0  0.291869  0.388972  0  0.951376  0
H  H1  1  0.86688473  0.90138399  0.48632177  1  0  0.432307  0  0.869866  0  0  0.397599  0  0.93892  0  0  0.409822  0  0.921237  0  0.650426  0  0.291866  0.388924  0  0.95144  0
H  H2  1  0.63311178  0.40140195  0.48634078  1  0  0.43216  0  0.870043  0  0  0.397471  0  0.939086  0  0  0.409693  0  0.921407  0  0.650176  0  0.291785  0.388793  0  0.951612  0
H  H3  1  0.13304806  0.09856712  0.51365998  1  0  0.432433  0  0.869685  0  0  0.397683  0  0.938826  0  0  0.409913  0  0.921129  0  0.650485  0  0.29185  0.389005  0  0.951351  0
H  H4  1  0.33937274  0.49561698  0.39730780  1  0  0.42938  0  0.861644  0  0  0.396349  0  0.934272  0  0  0.40797  0  0.917329  0  0.657873  0  0.295184  0.388059  0  0.946337  0
H  H5  1  0.83932709  0.00436983  0.60267288  1  0  0.429529  0  0.86138  0  0  0.396436  0  0.934138  0  0  0.408058  0  0.917192  0  0.658184  0  0.295204  0.388149  0  0.946202  0
H  H6  1  0.66067298  0.50439613  0.60268823  1  0  0.429515  0  0.861508  0  0  0.396436  0  0.934139  0  0  0.408057  0  0.917193  0  0.65805  0  0.295191  0.388148  0  0.946205  0
H  H7  1  0.16057049  0.99558306  0.39730220  1  0  0.429511  0  0.861331  0  0  0.396493  0  0.934048  0  0  0.408122  0  0.917093  0  0.65752  0  0.295259  0.388202  0  0.946115  0
H  H8  1  0.19382978  0.39672783  0.17564537  1  0  0.12142  0  0.945063  0  0  0.125379  0  1.014985  0  0  0.129468  0  1.009193  0  0.213019  0  0.14527  0.122386  0  1.019099  0
H  H9  1  0.69372833  0.10327136  0.82435784  1  0  0.121368  0  0.945314  0  0  0.125407  0  1.015118  0  0  0.129494  0  1.009334  0  0.212591  0  0.145257  0.122415  0  1.019231  0
H  H10  1  0.80621741  0.60324807  0.82434938  1  0  0.121415  0  0.945326  0  0  0.125422  0  1.015143  0  0  0.12951  0  1.009355  0  0.21282  0  0.145273  0.122428  0  1.019254  0
H  H11  1  0.30616339  0.89675590  0.17566717  1  0  0.121487  0  0.945169  0  0  0.125425  0  1.015088  0  0  0.129515  0  1.0093  0  0.213358  0  0.145324  0.122432  0  1.0192  0
H  H12  1  0.27817455  0.59960950  0.94741685  1  0  0.105662  0  0.978556  0  0  0.114746  0  1.045005  0  0  0.117728  0  1.043421  0  0.066625  0  0.106735  0.112603  0  1.046251  0
H  H13  1  0.77819026  0.90039448  0.05259094  1  0  0.10567  0  0.978465  0  0  0.114736  0  1.044939  0  0  0.117713  0  1.04336  0  0.066631  0  0.106738  0.112591  0  1.046189  0
H  H14  1  0.72181397  0.40038057  0.05259085  1  0  0.105666  0  0.978553  0  0  0.114731  0  1.045024  0  0  0.117713  0  1.043435  0  0.066361  0  0.106701  0.112586  0  1.046275  0
H  H15  1  0.22183493  0.09961863  0.94741091  1  0  0.105656  0  0.978529  0  0  0.11475  0  1.044972  0  0  0.117727  0  1.043394  0  0.066504  0  0.106733  0.112616  0  1.046195  0
H  H16  1  0.38053740  0.47781787  0.76232489  1  0  0.108832  0  0.960797  0  0  0.116538  0  1.028849  0  0  0.120269  0  1.025686  0  0.135932  0  0.107548  0.113799  0  1.031218  0
H  H17  1  0.88054665  0.02218929  0.23768912  1  0  0.108808  0  0.960818  0  0  0.116478  0  1.028934  0  0  0.120209  0  1.025772  0  0.13565  0  0.107555  0.113739  0  1.031304  0
H  H18  1  0.61944379  0.52218726  0.23767857  1  0  0.108815  0  0.960819  0  0  0.116483  0  1.028909  0  0  0.120214  0  1.025748  0  0.135805  0  0.107547  0.113747  0  1.031274  0
H  H19  1  0.11948440  0.97782294  0.76231097  1  0  0.10879  0  0.960924  0  0  0.11648  0  1.028987  0  0  0.120208  0  1.025829  0  0.135683  0  0.107521  0.113738  0  1.031365  0
H  H20  1  0.36463373  0.16604893  0.83301551  1  0  0.092423  0  0.971061  0  0  0.101607  0  1.037742  0  0  0.104224  0  1.036073  0  0.068039  0  0.10381  0.09973  0  1.038922  0
H  H21  1  0.86453065  0.33396442  0.16700503  1  0  0.092289  0  0.971342  0  0  0.10158  0  1.037868  0  0  0.104197  0  1.036199  0  0.067562  0  0.103839  0.099704  0  1.039044  0
H  H22  1  0.63546479  0.83394912  0.16698111  1  0  0.092265  0  0.971357  0  0  0.101521  0  1.037923  0  0  0.104135  0  1.036257  0  0.067866  0  0.103845  0.099646  0  1.039097  0
H  H23  1  0.13545200  0.66604957  0.83299349  1  0  0.092183  0  0.971531  0  0  0.101499  0  1.038028  0  0  0.104116  0  1.036358  0  0.067808  0  0.103815  0.099623  0  1.039203  0
H  H24  1  0.26828263  0.28679339  0.01875730  1  0  0.105363  0  0.970628  0  0  0.112566  0  1.039376  0  0  0.116046  0  1.037072  0  0.121671  0  0.106275  0.110057  0  1.041125  0
H  H25  1  0.76818161  0.21321554  0.98125513  1  0  0.105271  0  0.970651  0  0  0.112466  0  1.039404  0  0  0.115944  0  1.037113  0  0.121503  0  0.106251  0.109965  0  1.041134  0
H  H26  1  0.73190243  0.71319402  0.98124874  1  0  0.105228  0  0.970701  0  0  0.112424  0  1.039433  0  0  0.115903  0  1.037158  0  0.12163  0  0.10624  0.109925  0  1.04116  0
H  H27  1  0.23176878  0.78679756  0.01875255  1  0  0.105325  0  0.970622  0  0  0.112523  0  1.039363  0  0  0.115993  0  1.037091  0  0.121715  0  0.106276  0.110022  0  1.041091  0
Pb  Pb28  1  0.92973530  0.61538277  0.44400978  1  0  1.384331  0  1.348615  0  0  1.201644  0  1.733997  0  0  1.261694  0  1.690555  0  1.462231  0  0.664634  1.157923  0  1.764743  0
Pb  Pb29  1  0.42969252  0.88462300  0.55597312  1  0  1.384295  0  1.348712  0  0  1.20167  0  1.734157  0  0  1.261708  0  1.690698  0  1.462361  0  0.66457  1.157953  0  1.764907  0
Pb  Pb30  1  0.07029135  0.38462678  0.55599813  1  0  1.38432  0  1.348637  0  0  1.20163  0  1.734031  0  0  1.261692  0  1.690593  0  1.462412  0  0.664594  1.157908  0  1.764779  0
Pb  Pb31  1  0.57022120  0.11537506  0.44401402  1  0  1.384154  0  1.348821  0  0  1.201508  0  1.734252  0  0  1.261557  0  1.690799  0  1.462198  0  0.664594  1.15779  0  1.765  0
C  C32  1  0.05569558  0.79205674  0.30668890  1  0  0.615341  0  3.938816  0  0  0.55941  0  4.243176  0  0  0.592789  0  4.23505  0  1.655013  0  0.21865  0.536789  0  4.24788  0
C  C33  1  0.55569623  0.70793397  0.69329751  1  0  0.615253  0  3.938961  0  0  0.559387  0  4.243479  0  0  0.592782  0  4.235328  0  1.655168  0  0.218637  0.536783  0  4.248195  0
C  C34  1  0.94430321  0.20791562  0.69330753  1  0  0.615233  0  3.939041  0  0  0.559328  0  4.243405  0  0  0.592689  0  4.235274  0  1.655768  0  0.218648  0.536728  0  4.248114  0
C  C35  1  0.44429229  0.29208090  0.30671225  1  0  0.615241  0  3.938504  0  0  0.559369  0  4.242913  0  0  0.592757  0  4.234771  0  1.655225  0  0.218557  0.536755  0  4.24762  0
C  C36  1  0.11021905  0.67012349  0.23012914  1  0  0.177972  0  3.759043  0  0  0.161663  0  4.04056  0  0  0.16731  0  4.055806  0  0.941087  0  0.21451  0.157816  0  4.030249  0
C  C37  1  0.61019360  0.82986987  0.76986840  1  0  0.178134  0  3.758836  0  0  0.161597  0  4.040665  0  0  0.167245  0  4.055896  0  0.940958  0  0.214478  0.157677  0  4.03046  0
C  C38  1  0.88980614  0.32985329  0.76987248  1  0  0.178293  0  3.758684  0  0  0.161869  0  4.040364  0  0  0.167571  0  4.055531  0  0.940983  0  0.214618  0.157947  0  4.030155  0
C  C39  1  0.38975972  0.17014943  0.23014363  1  0  0.177862  0  3.758827  0  0  0.161551  0  4.040335  0  0  0.167196  0  4.055574  0  0.940946  0  0.214497  0.15768  0  4.030056  0
C  C40  1  0.16751474  0.48496737  0.17807741  1  0  0.207353  0  3.600019  0  0  0.132176  0  3.871548  0  0  0.148028  0  3.879337  0  0.976696  0  0.174848  0.121955  0  3.866003  0
C  C41  1  0.66745211  0.01502917  0.82192343  1  0  0.207411  0  3.600451  0  0  0.132176  0  3.872024  0  0  0.148024  0  3.879821  0  0.976545  0  0.174812  0.121956  0  3.866475  0
C  C42  1  0.83252511  0.51501119  0.82192337  1  0  0.2072  0  3.600653  0  0  0.132059  0  3.872114  0  0  0.147906  0  3.879912  0  0.976077  0  0.174799  0.121852  0  3.866549  0
C  C43  1  0.33247627  0.98499190  0.17809141  1  0  0.207548  0  3.600023  0  0  0.132308  0  3.871688  0  0  0.148159  0  3.879475  0  0.976068  0  0.174861  0.122091  0  3.866138  0
C  C44  1  0.26159697  0.45080411  0.99263788  1  0  0.182224  0  3.765867  0  0  0.159286  0  4.016609  0  0  0.166695  0  4.037442  0  0.265068  0  0.101971  0.154596  0  4.002263  0
C  C45  1  0.76155702  0.04919951  0.00736979  1  0  0.182167  0  3.765733  0  0  0.159246  0  4.016482  0  0  0.166664  0  4.037304  0  0.26494  0  0.101888  0.154549  0  4.002146  0
C  C46  1  0.73846929  0.54918330  0.00736817  1  0  0.182298  0  3.765795  0  0  0.159371  0  4.016517  0  0  0.166785  0  4.037348  0  0.264845  0  0.10187  0.154689  0  4.002162  0
C  C47  1  0.23842417  0.95081360  0.99263571  1  0  0.182113  0  3.766198  0  0  0.159197  0  4.016881  0  0  0.166609  0  4.037709  0  0.264825  0  0.101924  0.154505  0  4.002536  0
C  C48  1  0.29408857  0.50435774  0.92091211  1  0  -0.144536  0  3.725942  0  0  -0.170019  0  3.991251  0  0  -0.174922  0  4.010643  0  0.113503  0  -0.093306  -0.166775  0  3.977959  0
C  C49  1  0.79407564  0.99564800  0.07909849  1  0  -0.144398  0  3.725652  0  0  -0.169802  0  3.99089  0  0  -0.174705  0  4.010281  0  0.113697  0  -0.093215  -0.166561  0  3.977603  0
C  C50  1  0.70593222  0.49563410  0.07909328  1  0  -0.144513  0  3.725806  0  0  -0.169922  0  3.990982  0  0  -0.174824  0  4.010378  0  0.113303  0  -0.093212  -0.16668  0  3.977692  0
C  C51  1  0.20593488  0.00436599  0.92090587  1  0  -0.144457  0  3.726186  0  0  -0.169933  0  3.991431  0  0  -0.174835  0  4.010824  0  0.113324  0  -0.093249  -0.166688  0  3.978147  0
C  C52  1  0.35061391  0.43563852  0.81766648  1  0  -0.055372  0  3.720577  0  0  -0.082313  0  3.976749  0  0  -0.080601  0  3.996181  0  -0.134744  0  -0.081635  -0.083021  0  3.963402  0
C  C53  1  0.85060262  0.06436953  0.18234783  1  0  -0.055367  0  3.720747  0  0  -0.082388  0  3.976953  0  0  -0.08068  0  3.996389  0  -0.135318  0  -0.081715  -0.083097  0  3.963606  0
C  C54  1  0.64938782  0.56436042  0.18233409  1  0  -0.055391  0  3.720479  0  0  -0.082272  0  3.976648  0  0  -0.080565  0  3.996078  0  -0.068528  0  -0.081639  -0.082986  0  3.963309  0
C  C55  1  0.14941377  0.93564535  0.81765537  1  0  -0.055354  0  3.720705  0  0  -0.082278  0  3.976879  0  0  -0.080572  0  3.996318  0  -0.135313  0  -0.0816  -0.082994  0  3.963542  0
C  C56  1  0.37514771  0.31318447  0.78566289  1  0  -0.074754  0  3.752218  0  0  -0.05344  0  3.990031  0  0  -0.063131  0  4.013388  0  0.025533  0  -0.022733  -0.047367  0  3.974511  0
C  C57  1  0.87511800  0.18682535  0.21435058  1  0  -0.074764  0  3.75216  0  0  -0.053341  0  3.989868  0  0  -0.063024  0  4.013213  0  0.025464  0  -0.022683  -0.047267  0  3.974347  0
C  C58  1  0.62486134  0.68681359  0.21432935  1  0  -0.074926  0  3.752144  0  0  -0.053777  0  3.990173  0  0  -0.063458  0  4.013503  0  -0.040783  0  -0.022893  -0.047703  0  3.974661  0
C  C59  1  0.12488959  0.81319130  0.78565251  1  0  -0.074717  0  3.752047  0  0  -0.053481  0  3.990035  0  0  -0.063172  0  4.013389  0  0.02617  0  -0.022814  -0.047405  0  3.974511  0
C  C60  1  0.43441479  0.23714008  0.67483804  1  0  0.648976  0  3.921966  0  0  0.594639  0  4.215639  0  0  0.630097  0  4.210111  0  1.540581  0  0.204593  0.570568  0  4.218483  0
C  C61  1  0.93441847  0.26287416  0.32517333  1  0  0.648888  0  3.922167  0  0  0.594536  0  4.215823  0  0  0.629988  0  4.210293  0  1.541593  0  0.20438  0.570465  0  4.218668  0
C  C62  1  0.56552973  0.76286330  0.32514221  1  0  0.64921  0  3.922289  0  0  0.594927  0  4.215948  0  0  0.630381  0  4.210421  0  1.542891  0  0.20452  0.570854  0  4.218793  0
C  C63  1  0.06560525  0.73715046  0.67482524  1  0  0.648983  0  3.921948  0  0  0.594581  0  4.21577  0  0  0.630037  0  4.210249  0  1.541334  0  0.204604  0.57051  0  4.218615  0
C  C64  1  0.34543867  0.26131952  0.85925702  1  0  -0.040786  0  3.730498  0  0  -0.066643  0  3.981325  0  0  -0.064484  0  4.001041  0  0.005953  0  -0.08026  -0.067832  0  3.967923  0
C  C65  1  0.84536432  0.23869030  0.14075718  1  0  -0.040515  0  3.730359  0  0  -0.066437  0  3.980976  0  0  -0.064276  0  4.000695  0  0.00657  0  -0.080166  -0.067629  0  3.967575  0
C  C66  1  0.65463932  0.73867676  0.14073899  1  0  -0.040442  0  3.730311  0  0  -0.066269  0  3.981043  0  0  -0.0641  0  4.000755  0  0.006238  0  -0.080127  -0.067465  0  3.967647  0
C  C67  1  0.15462126  0.76132369  0.85924498  1  0  -0.040436  0  3.73062  0  0  -0.06632  0  3.981325  0  0  -0.064154  0  4.001036  0  0.006717  0  -0.080126  -0.067515  0  3.967922  0
C  C68  1  0.28927566  0.32875770  0.96253253  1  0  -0.149084  0  3.714304  0  0  -0.168524  0  3.971418  0  0  -0.174407  0  3.991702  0  -0.076929  0  -0.089485  -0.164597  0  3.957615  0
C  C69  1  0.78920057  0.17124946  0.03747856  1  0  -0.149091  0  3.714234  0  0  -0.168595  0  3.971475  0  0  -0.174474  0  3.991728  0  -0.076629  0  -0.089581  -0.164673  0  3.95769  0
C  C70  1  0.71084047  0.67123326  0.03747183  1  0  -0.149014  0  3.714124  0  0  -0.168524  0  3.971332  0  0  -0.174409  0  3.991575  0  -0.07652  0  -0.089491  -0.164593  0  3.957528  0
C  C71  1  0.21077036  0.82876364  0.96252767  1  0  -0.149109  0  3.714348  0  0  -0.168604  0  3.971536  0  0  -0.174489  0  3.991802  0  -0.076648  0  -0.089542  -0.16468  0  3.957751  0
N  N72  1  0.10969486  0.57710902  0.26210954  1  0  -0.422936  0  3.138707  0  0  -0.36323  0  3.410318  0  0  -0.383821  0  3.426641  0  -1.190133  0  -0.308887  -0.349101  0  3.398924  0
N  N73  1  0.60964270  0.92288345  0.73788769  1  0  -0.422992  0  3.13886  0  0  -0.363106  0  3.410448  0  0  -0.383713  0  3.426792  0  -1.189638  0  -0.308773  -0.348955  0  3.399071  0
N  N74  1  0.89032593  0.42286599  0.73789000  1  0  -0.422908  0  3.138861  0  0  -0.363167  0  3.410472  0  0  -0.38377  0  3.426785  0  -1.189292  0  -0.308823  -0.34901  0  3.399087  0
N  N75  1  0.39028129  0.07713939  0.26212849  1  0  -0.422951  0  3.138667  0  0  -0.363158  0  3.410239  0  0  -0.383758  0  3.426567  0  -1.189909  0  -0.308857  -0.349015  0  3.398845  0
N  N76  1  0.20105563  0.52097555  0.09728516  1  0  0.007861  0  3.56774  0  0  0.124656  0  3.747389  0  0  0.112533  0  3.771021  0  -0.850184  0  -0.112041  0.132028  0  3.732256  0
N  N77  1  0.70101443  0.97902489  0.90271921  1  0  0.007742  0  3.567807  0  0  0.124444  0  3.747596  0  0  0.112321  0  3.771223  0  -0.849961  0  -0.111959  0.131829  0  3.732434  0
N  N78  1  0.79900183  0.47900832  0.90272111  1  0  0.007808  0  3.567985  0  0  0.124536  0  3.747621  0  0  0.112413  0  3.77126  0  -0.849396  0  -0.111996  0.131865  0  3.732559  0
N  N79  1  0.29894769  0.02099175  0.09729116  1  0  0.007775  0  3.567972  0  0  0.124581  0  3.747638  0  0  0.112459  0  3.771267  0  -0.8494  0  -0.112067  0.131933  0  3.732537  0
N  N80  1  0.16528861  0.63953831  0.12972913  1  0  -0.251468  0  2.825973  0  0  -0.259067  0  3.091686  0  0  -0.264482  0  3.106283  0  -0.650278  0  -0.199904  -0.255227  0  3.081971  0
N  N81  1  0.66526397  0.86045948  0.87027286  1  0  -0.251611  0  2.825815  0  0  -0.259075  0  3.091614  0  0  -0.264491  0  3.10621  0  -0.65032  0  -0.200038  -0.255216  0  3.081922  0
N  N82  1  0.83476151  0.36044556  0.87027787  1  0  -0.251724  0  2.82607  0  0  -0.259288  0  3.091876  0  0  -0.264721  0  3.106463  0  -0.650808  0  -0.200095  -0.255416  0  3.082185  0
N  N83  1  0.33470989  0.13955540  0.12973471  1  0  -0.251585  0  2.826075  0  0  -0.259162  0  3.091815  0  0  -0.264579  0  3.106409  0  -0.650294  0  -0.199935  -0.25531  0  3.082108  0
O  O84  1  0.00931433  0.79707693  0.39939825  1  0  -0.667954  0  2.061559  0  0  -0.590845  0  2.294531  0  0  -0.621315  0  2.286724  0  -1.180171  0  -0.292292  -0.569235  0  2.299169  0
O  O85  1  0.50932374  0.70291733  0.60058429  1  0  -0.667802  0  2.061362  0  0  -0.590927  0  2.294597  0  0  -0.621353  0  2.286685  0  -1.180439  0  -0.292236  -0.569313  0  2.299228  0
O  O86  1  0.99069032  0.20289809  0.60060057  1  0  -0.667981  0  2.061493  0  0  -0.590835  0  2.294401  0  0  -0.621327  0  2.286652  0  -1.180762  0  -0.292288  -0.569226  0  2.299034  0
O  O87  1  0.49065745  0.29709223  0.39942435  1  0  -0.667644  0  2.061099  0  0  -0.590748  0  2.294257  0  0  -0.621188  0  2.286396  0  -1.180497  0  -0.292213  -0.56914  0  2.298892  0
O  O88  1  0.06117962  0.87833256  0.27927714  1  0  -0.580667  0  1.952497  0  0  -0.530804  0  2.17725  0  0  -0.553757  0  2.167823  0  -1.168798  0  -0.300771  -0.514724  0  2.183293  0
O  O89  1  0.56119039  0.62165461  0.72070512  1  0  -0.580575  0  1.952291  0  0  -0.530796  0  2.177169  0  0  -0.553745  0  2.167732  0  -1.168784  0  -0.30082  -0.514718  0  2.183206  0
O  O90  1  0.93879717  0.12163803  0.72071649  1  0  -0.580669  0  1.952411  0  0  -0.530841  0  2.177252  0  0  -0.553791  0  2.167835  0  -1.169373  0  -0.300825  -0.514758  0  2.183286  0
O  O91  1  0.43883480  0.37835938  0.27930360  1  0  -0.580561  0  1.952034  0  0  -0.530794  0  2.176896  0  0  -0.553746  0  2.167467  0  -1.16904  0  -0.300781  -0.514715  0  2.182937  0
O  O92  1  0.42971012  0.28331061  0.60508930  1  0  -0.686163  0  1.987029  0  0  -0.610763  0  2.22729  0  0  -0.64357  0  2.222018  0  -1.171582  0  -0.301323  -0.587675  0  2.230248  0
O  O93  1  0.92977150  0.21670540  0.39492341  1  0  -0.686084  0  1.987038  0  0  -0.610693  0  2.227262  0  0  -0.643501  0  2.222014  0  -1.171708  0  -0.301211  -0.587607  0  2.23022  0
O  O94  1  0.57016106  0.71669542  0.39489332  1  0  -0.68628  0  1.987287  0  0  -0.610862  0  2.227424  0  0  -0.64368  0  2.222179  0  -1.173065  0  -0.301251  -0.587775  0  2.230382  0
O  O95  1  0.07028302  0.78332453  0.60507920  1  0  -0.686216  0  1.986936  0  0  -0.610784  0  2.227258  0  0  -0.643555  0  2.221914  0  -1.171375  0  -0.301342  -0.587695  0  2.230217  0
O  O96  1  0.48873561  0.13178846  0.65503305  1  0  -0.663468  0  1.985664  0  0  -0.593971  0  2.221604  0  0  -0.625055  0  2.217419  0  -1.188523  0  -0.302333  -0.572085  0  2.22378  0
O  O97  1  0.98871223  0.36822934  0.34497153  1  0  -0.663541  0  1.985811  0  0  -0.593971  0  2.221623  0  0  -0.625079  0  2.217494  0  -1.188889  0  -0.302262  -0.572087  0  2.223801  0
O  O98  1  0.51123678  0.86821670  0.34493178  1  0  -0.663564  0  1.985825  0  0  -0.594028  0  2.221682  0  0  -0.625125  0  2.217528  0  -1.188933  0  -0.302279  -0.572143  0  2.22386  0
O  O99  1  0.01128509  0.63179707  0.65501745  1  0  -0.663492  0  1.98609  0  0  -0.593914  0  2.221938  0  0  -0.625045  0  2.217846  0  -1.189815  0  -0.302307  -0.572029  0  2.224114  0
O  O100  1  0.26967868  0.54324362  0.46403015  1  0  -0.88221  0  1.9235  0  0  -0.808555  0  2.123966  0  0  -0.835033  0  2.091467  0  -1.287546  0  -0.550855  -0.789509  0  2.146542  0
O  O101  1  0.76964608  0.95672850  0.53594687  1  0  -0.882356  0  1.923414  0  0  -0.808673  0  2.12403  0  0  -0.835148  0  2.091538  0  -1.288115  0  -0.550875  -0.789624  0  2.146592  0
O  O102  1  0.73035238  0.45675266  0.53596731  1  0  -0.882258  0  1.923726  0  0  -0.808498  0  2.1241  0  0  -0.835018  0  2.091706  0  -1.287859  0  -0.5508  -0.789425  0  2.146618  0
O  O103  1  0.23027643  0.04322528  0.46402341  1  0  -0.882404  0  1.923114  0  0  -0.808785  0  2.123741  0  0  -0.83527  0  2.091231  0  -1.287553  0  -0.550911  -0.789734  0  2.146328  0
