# generated using pymatgen
data_Ag2H16C16S(NO2)3
_symmetry_space_group_name_H-M   'P 1'
_cell_length_a   8.89128169
_cell_length_b   10.49755935
_cell_length_c   11.81838937
_cell_angle_alpha   85.86352995
_cell_angle_beta   69.16245523
_cell_angle_gamma   65.03635843
_symmetry_Int_Tables_number   1
_chemical_formula_structural   Ag2H16C16S(NO2)3
_chemical_formula_sum   'Ag4 H32 C32 S2 N6 O12'
_cell_volume   930.65679309
_cell_formula_units_Z   2
loop_
 _symmetry_equiv_pos_site_id
 _symmetry_equiv_pos_as_xyz
  1  'x, y, z'
loop_
 _atom_site_type_symbol
 _atom_site_label
 _atom_site_symmetry_multiplicity
 _atom_site_fract_x
 _atom_site_fract_y
 _atom_site_fract_z
 _atom_site_occupancy
 _atom_site_hle17_bader_spin_density
 _atom_site_hle17_ddec_charge
 _atom_site_hle17_ddec_spin_density
 _atom_site_hle17_ddec_sum_bond_order
 _atom_site_hle17_magmom
 _atom_site_hse06_10hf_bader_spin_density
 _atom_site_hse06_10hf_ddec_charge
 _atom_site_hse06_10hf_ddec_spin_density
 _atom_site_hse06_10hf_ddec_sum_bond_order
 _atom_site_hse06_10hf_magmom
 _atom_site_hse06_bader_spin_density
 _atom_site_hse06_ddec_charge
 _atom_site_hse06_ddec_spin_density
 _atom_site_hse06_ddec_sum_bond_order
 _atom_site_hse06_magmom
 _atom_site_pbe_bader_spin_density
 _atom_site_pbe_cm5_charge
 _atom_site_pbe_ddec_charge
 _atom_site_pbe_ddec_spin_density
 _atom_site_pbe_ddec_sum_bond_order
 _atom_site_pbe_magmom
Ag  Ag0  1  0.32582986  0.72245881  0.77340966  1  0  0.574333  0  1.315828  0  0  0.434323  0  1.722479  0  0  0.463785  0  1.679089  0  0  0.498644  0.414246  0  1.752273  0
Ag  Ag1  1  0.67416819  0.27754832  0.22658969  1  0  0.574333  0  1.315762  0  0  0.434329  0  1.722389  0  0  0.463794  0  1.678998  0  0  0.498631  0.41425  0  1.752177  0
Ag  Ag2  1  0.40197481  0.04235228  0.62635177  1  0  0.576951  0  1.377665  0  0  0.438819  0  1.852737  0  0  0.477212  0  1.788857  0  0  0.40936  0.412017  0  1.897461  0
Ag  Ag3  1  0.59802001  0.95764960  0.37364877  1  0  0.576911  0  1.377657  0  0  0.438783  0  1.852718  0  0  0.47717  0  1.788845  0  0  0.409332  0.411971  0  1.897444  0
H  H4  1  0.87447904  0.61401017  0.49215600  1  0  0.088168  0  0.971066  0  0  0.101367  0  1.031326  0  0  0.103213  0  1.030734  0  0  0.102712  0.099646  0  1.032694  0
H  H5  1  0.12552394  0.38598538  0.50784102  1  0  0.088146  0  0.971053  0  0  0.101339  0  1.031341  0  0  0.103184  0  1.030749  0  0  0.102701  0.099613  0  1.032715  0
H  H6  1  0.13544086  0.58794192  0.30767367  1  0  0.13576  0  0.947118  0  0  0.145825  0  1.00278  0  0  0.150303  0  1.000407  0  0  0.107068  0.14265  0  1.004509  0
H  H7  1  0.86455868  0.41205784  0.69232487  1  0  0.135778  0  0.9471  0  0  0.145842  0  1.002756  0  0  0.15032  0  1.000383  0  0  0.107076  0.142665  0  1.004489  0
H  H8  1  0.97234190  0.89587714  0.67294487  1  0  0.105124  0  0.953876  0  0  0.112079  0  1.023839  0  0  0.116365  0  1.019292  0  0  0.105188  0.108969  0  1.027167  0
H  H9  1  0.02766347  0.10411624  0.32705670  1  0  0.105067  0  0.953904  0  0  0.112053  0  1.02384  0  0  0.116347  0  1.019284  0  0  0.105184  0.108941  0  1.027162  0
H  H10  1  0.95337336  0.74338824  0.88719063  1  0  0.098491  0  0.952313  0  0  0.105804  0  1.019678  0  0  0.108381  0  1.017782  0  0  0.121146  0.103865  0  1.021208  0
H  H11  1  0.04663247  0.25660199  0.11281016  1  0  0.098453  0  0.952292  0  0  0.105734  0  1.019683  0  0  0.108311  0  1.017787  0  0  0.121125  0.103799  0  1.021204  0
H  H12  1  0.54169362  0.89909062  0.14557142  1  0  0.148879  0  0.964256  0  0  0.167166  0  1.025879  0  0  0.169495  0  1.024382  0  0  0.10122  0.165369  0  1.027125  0
H  H13  1  0.45831063  0.10090487  0.85443033  1  0  0.148869  0  0.964209  0  0  0.167182  0  1.025803  0  0  0.169513  0  1.024303  0  0  0.101224  0.165384  0  1.027052  0
H  H14  1  0.65429563  0.71178362  0.13511403  1  0  0.119883  0  0.957826  0  0  0.145833  0  1.013818  0  0  0.146009  0  1.01479  0  0  0.097761  0.145605  0  1.013223  0
H  H15  1  0.34570680  0.28821080  0.86489081  1  0  0.119888  0  0.957756  0  0  0.145812  0  1.013771  0  0  0.146004  0  1.014729  0  0  0.097772  0.145594  0  1.013166  0
H  H16  1  0.65186308  0.79880925  0.00062752  1  0  0.1394  0  0.967238  0  0  0.158828  0  1.026385  0  0  0.160652  0  1.026138  0  0  0.098997  0.15742  0  1.026638  0
H  H17  1  0.34813876  0.20118624  0.99937573  1  0  0.139345  0  0.967257  0  0  0.158778  0  1.026399  0  0  0.160601  0  1.026154  0  0  0.098955  0.157371  0  1.026647  0
H  H18  1  0.99803605  0.91647560  0.23790811  1  0  0.104942  0  0.95398  0  0  0.113303  0  1.017397  0  0  0.116052  0  1.015633  0  0  0.119771  0.111241  0  1.018836  0
H  H19  1  0.00196379  0.08353263  0.76208562  1  0  0.10497  0  0.953922  0  0  0.11331  0  1.017378  0  0  0.116062  0  1.015615  0  0  0.119786  0.111252  0  1.018819  0
H  H20  1  0.35350802  0.88367518  0.93930022  1  0  0.122059  0  0.964712  0  0  0.138614  0  1.036344  0  0  0.140146  0  1.035499  0  0  0.093587  0.137341  0  1.037162  0
H  H21  1  0.64649452  0.11632567  0.06069236  1  0  0.12213  0  0.964689  0  0  0.138614  0  1.036399  0  0  0.140148  0  1.035552  0  0  0.093607  0.137342  0  1.03722  0
H  H22  1  0.40103829  0.74803781  0.03687484  1  0  0.138462  0  0.923434  0  0  0.163929  0  0.975661  0  0  0.165005  0  0.975208  0  0  0.107171  0.163073  0  0.976065  0
H  H23  1  0.59896241  0.25196199  0.96311915  1  0  0.138459  0  0.923461  0  0  0.163955  0  0.975644  0  0  0.165031  0  0.975191  0  0  0.107188  0.163097  0  0.976043  0
H  H24  1  0.28105973  0.92647918  0.09906542  1  0  0.145685  0  0.94319  0  0  0.1671  0  0.998971  0  0  0.168563  0  0.999319  0  0  0.103721  0.166016  0  0.998711  0
H  H25  1  0.71894643  0.07352166  0.90092618  1  0  0.145698  0  0.943175  0  0  0.167113  0  0.998953  0  0  0.168575  0  0.999301  0  0  0.103739  0.166029  0  0.998695  0
H  H26  1  0.60939498  0.66870451  0.52312277  1  0  0.101103  0  0.968547  0  0  0.108894  0  1.03623  0  0  0.111413  0  1.033725  0  0  0.119  0.10702  0  1.038208  0
H  H27  1  0.39060309  0.33130261  0.47687826  1  0  0.101151  0  0.968563  0  0  0.108933  0  1.03629  0  0  0.111453  0  1.033784  0  0  0.118998  0.107058  0  1.038275  0
H  H28  1  0.24344993  0.49186150  0.79106916  1  0  0.112254  0  0.961359  0  0  0.129965  0  1.029662  0  0  0.132751  0  1.026347  0  0  0.092696  0.127909  0  1.032047  0
H  H29  1  0.75654871  0.50814455  0.20893263  1  0  0.112255  0  0.961408  0  0  0.129961  0  1.029717  0  0  0.132744  0  1.026402  0  0  0.092695  0.127903  0  1.032105  0
H  H30  1  0.23232019  0.36719241  0.70205142  1  0  0.126656  0  0.947068  0  0  0.145686  0  1.012013  0  0  0.147304  0  1.011136  0  0  0.097535  0.144471  0  1.012676  0
H  H31  1  0.76768087  0.63281363  0.29795056  1  0  0.126735  0  0.946897  0  0  0.145774  0  1.01186  0  0  0.147392  0  1.010984  0  0  0.097592  0.14456  0  1.01252  0
H  H32  1  0.09454141  0.54920591  0.71067173  1  0  0.139878  0  0.966505  0  0  0.159426  0  1.027968  0  0  0.160021  0  1.02945  0  0  0.098971  0.158938  0  1.026921  0
H  H33  1  0.90545418  0.45079909  0.28933180  1  0  0.13991  0  0.966511  0  0  0.159478  0  1.027946  0  0  0.160073  0  1.029428  0  0  0.098989  0.158987  0  1.0269  0
H  H34  1  0.38877348  0.77819875  0.30319548  1  0  0.37793  0  0.909946  0  0  0.351361  0  0.98229  0  0  0.363052  0  0.970463  0  0  0.300504  0.343209  0  0.990344  0
H  H35  1  0.61122731  0.22180097  0.69680610  1  0  0.377916  0  0.909974  0  0  0.351353  0  0.982312  0  0  0.363044  0  0.970483  0  0  0.300503  0.343201  0  0.990368  0
C  C36  1  0.90434731  0.75947872  0.59364963  1  0  -0.156726  0  3.773106  0  0  -0.130995  0  4.023893  0  0  -0.141885  0  4.047302  0  0  -0.036675  -0.124063  0  4.008463  0
C  C37  1  0.09565380  0.24051362  0.40635400  1  0  -0.15688  0  3.773242  0  0  -0.131161  0  4.024047  0  0  -0.142051  0  4.047459  0  0  -0.036701  -0.124223  0  4.008602  0
C  C38  1  0.95079696  0.67291399  0.49025402  1  0  -0.033118  0  3.768208  0  0  -0.05916  0  4.022823  0  0  -0.054346  0  4.041232  0  0  -0.083585  -0.062423  0  4.011429  0
C  C39  1  0.04920784  0.32708044  0.50974764  1  0  -0.033009  0  3.768159  0  0  -0.059052  0  4.022782  0  0  -0.054234  0  4.041185  0  0  -0.083576  -0.062319  0  4.011397  0
C  C40  1  0.09591132  0.65852356  0.38673199  1  0  -0.196688  0  3.699938  0  0  -0.213981  0  3.956099  0  0  -0.222621  0  3.974777  0  0  -0.103992  -0.207701  0  3.943379  0
C  C41  1  0.90408992  0.34147302  0.61326798  1  0  -0.196717  0  3.69992  0  0  -0.214003  0  3.956066  0  0  -0.222646  0  3.97475  0  0  -0.10397  -0.207713  0  3.943347  0
C  C42  1  0.19795400  0.73160519  0.38467686  1  0  0.343973  0  3.782537  0  0  0.325621  0  4.046864  0  0  0.342105  0  4.060378  0  0  0.090767  0.314305  0  4.037315  0
C  C43  1  0.80204611  0.26839351  0.61532159  1  0  0.344019  0  3.782524  0  0  0.325655  0  4.046846  0  0  0.342139  0  4.060356  0  0  0.090797  0.314327  0  4.037313  0
C  C44  1  0.15476870  0.81634668  0.48981543  1  0  -0.219668  0  3.762235  0  0  -0.19907  0  4.005594  0  0  -0.21413  0  4.029049  0  0  -0.043119  -0.18875  0  3.990014  0
C  C45  1  0.84522612  0.18365520  0.51018511  1  0  -0.219701  0  3.762161  0  0  -0.199061  0  4.005484  0  0  -0.21412  0  4.028937  0  0  -0.043167  -0.188745  0  3.989912  0
C  C46  1  0.00668359  0.82947825  0.59289971  1  0  -0.040508  0  3.75733  0  0  -0.079351  0  4.014612  0  0  -0.072888  0  4.031405  0  0  -0.084972  -0.083533  0  4.003545  0
C  C47  1  0.99331701  0.17051727  0.40710134  1  0  -0.040425  0  3.75731  0  0  -0.079302  0  4.014571  0  0  -0.072845  0  4.03136  0  0  -0.084993  -0.083484  0  4.00351  0
C  C48  1  0.26849183  0.88516835  0.49435219  1  0  0.653127  0  3.91174  0  0  0.596612  0  4.19767  0  0  0.632682  0  4.194225  0  0  0.201894  0.571824  0  4.19962  0
C  C49  1  0.73150595  0.11483248  0.50564676  1  0  0.652988  0  3.911909  0  0  0.596448  0  4.197866  0  0  0.632519  0  4.194418  0  0  0.201819  0.571653  0  4.199824  0
C  C50  1  0.96548048  0.78074537  0.96578025  1  0  0.026161  0  3.644519  0  0  -0.005744  0  3.883075  0  0  -0.003866  0  3.902701  0  0  0.050616  -0.007232  0  3.870115  0
C  C51  1  0.03452187  0.21924910  0.03421869  1  0  0.026078  0  3.644625  0  0  -0.005765  0  3.883222  0  0  -0.003888  0  3.902849  0  0  0.050608  -0.00725  0  3.87025  0
C  C52  1  0.82477598  0.81727470  0.07788949  1  0  0.278381  0  3.716961  0  0  0.289643  0  3.955739  0  0  0.293585  0  3.978422  0  0  0.129342  0.286642  0  3.940592  0
C  C53  1  0.17522760  0.18271975  0.92211081  1  0  0.278497  0  3.716891  0  0  0.289634  0  3.95581  0  0  0.293576  0  3.978495  0  0  0.129339  0.286632  0  3.940668  0
C  C54  1  0.65829159  0.80639999  0.09049898  1  0  -0.394771  0  3.681592  0  0  -0.477151  0  3.907046  0  0  -0.480762  0  3.916571  0  0  -0.24693  -0.474224  0  3.900652  0
C  C55  1  0.34171201  0.19359445  0.90950301  1  0  -0.394644  0  3.681412  0  0  -0.477021  0  3.906954  0  0  -0.480647  0  3.916465  0  0  -0.246839  -0.474104  0  3.900549  0
C  C56  1  0.99093548  0.87586497  0.15854304  1  0  0.033705  0  3.642066  0  0  -0.000413  0  3.896819  0  0  0.001089  0  3.914998  0  0  0.051305  -0.001698  0  3.88492  0
C  C57  1  0.00906542  0.12413901  0.84145318  1  0  0.033598  0  3.64197  0  0  -0.000551  0  3.896772  0  0  0.000945  0  3.914958  0  0  0.051206  -0.001837  0  3.884886  0
C  C58  1  0.13253363  0.84004647  0.04657364  1  0  0.267761  0  3.712065  0  0  0.272163  0  3.958007  0  0  0.277108  0  3.980597  0  0  0.124305  0.268504  0  3.942923  0
C  C59  1  0.86746662  0.15995648  0.95342198  1  0  0.267889  0  3.711795  0  0  0.272278  0  3.957747  0  0  0.277223  0  3.980336  0  0  0.124319  0.268615  0  3.942667  0
C  C60  1  0.30013734  0.85146164  0.02982058  1  0  -0.387565  0  3.706726  0  0  -0.473162  0  3.944451  0  0  -0.476276  0  3.954048  0  0  -0.242242  -0.470572  0  3.93789  0
C  C61  1  0.69986400  0.14853920  0.97017317  1  0  -0.387697  0  3.706665  0  0  -0.473237  0  3.944389  0  0  -0.476353  0  3.953981  0  0  -0.242308  -0.470641  0  3.937824  0
C  C62  1  0.37013416  0.48733769  0.59986283  1  0  0.267806  0  3.715698  0  0  0.273152  0  3.96202  0  0  0.277609  0  3.984459  0  0  0.127614  0.26985  0  3.946919  0
C  C63  1  0.62986148  0.51266944  0.40013802  1  0  0.26781  0  3.715538  0  0  0.273139  0  3.961857  0  0  0.277597  0  3.984295  0  0  0.127589  0.269842  0  3.946749  0
C  C64  1  0.56253536  0.59179417  0.51130885  1  0  0.036086  0  3.633853  0  0  -0.001205  0  3.882836  0  0  0.000758  0  3.901904  0  0  0.050685  -0.002745  0  3.870245  0
C  C65  1  0.43746029  0.40821296  0.48869200  1  0  0.036155  0  3.633879  0  0  -0.00121  0  3.882987  0  0  0.000755  0  3.902055  0  0  0.050708  -0.002747  0  3.870402  0
C  C66  1  0.22781163  0.47285965  0.70661905  1  0  -0.380834  0  3.704184  0  0  -0.46169  0  3.934615  0  0  -0.464946  0  3.943373  0  0  -0.239411  -0.459004  0  3.928434  0
C  C67  1  0.77218457  0.52714643  0.29338171  1  0  -0.380947  0  3.704057  0  0  -0.461837  0  3.934506  0  0  -0.465091  0  3.943262  0  0  -0.23949  -0.459152  0  3.928323  0
S  S68  1  0.72466977  0.77049051  0.72916400  1  0  1.285382  0  5.684631  0  0  1.191641  0  6.198698  0  0  1.23937  0  6.177493  0  0  0.49438  1.158844  0  6.211975  0
S  S69  1  0.27533326  0.22950500  0.27083724  1  0  1.285426  0  5.684603  0  0  1.191684  0  6.198665  0  0  1.239409  0  6.177465  0  0  0.494372  1.158888  0  6.211941  0
N  N70  1  0.11665211  0.79189755  0.95014634  1  0  -0.32373  0  3.348852  0  0  -0.242547  0  3.627165  0  0  -0.259243  0  3.644012  0  0  -0.336063  -0.231117  0  3.615637  0
N  N71  1  0.88335031  0.20809905  0.04985077  1  0  -0.323694  0  3.348839  0  0  -0.242494  0  3.62712  0  0  -0.259191  0  3.643968  0  0  -0.336014  -0.231062  0  3.615581  0
N  N72  1  0.84004103  0.86483961  0.17457220  1  0  -0.307015  0  3.158245  0  0  -0.245441  0  3.43131  0  0  -0.259322  0  3.446032  0  0  -0.301974  -0.235801  0  3.421529  0
N  N73  1  0.15996053  0.13516542  0.82542463  1  0  -0.307119  0  3.158233  0  0  -0.245441  0  3.431277  0  0  -0.259323  0  3.445998  0  0  -0.301981  -0.235806  0  3.42151  0
N  N74  1  0.43592591  0.57932870  0.60901531  1  0  -0.294904  0  3.287869  0  0  -0.217093  0  3.558897  0  0  -0.232371  0  3.574757  0  0  -0.325856  -0.206512  0  3.547974  0
N  N75  1  0.56406974  0.42067843  0.39098554  1  0  -0.294906  0  3.28783  0  0  -0.217096  0  3.558926  0  0  -0.232375  0  3.574783  0  0  -0.325816  -0.206515  0  3.548003  0
O  O76  1  0.57612586  0.79162470  0.68764109  1  0  -0.722901  0  2.092107  0  0  -0.651584  0  2.398444  0  0  -0.676171  0  2.375892  0  0  -0.365268  -0.634112  0  2.413415  0
O  O77  1  0.42386585  0.20838766  0.31236643  1  0  -0.722926  0  2.092229  0  0  -0.651599  0  2.398548  0  0  -0.676188  0  2.375998  0  0  -0.365234  -0.634129  0  2.413522  0
O  O78  1  0.78553425  0.63525379  0.78156916  1  0  -0.666094  0  1.891164  0  0  -0.618332  0  2.121314  0  0  -0.639052  0  2.108031  0  0  -0.357621  -0.603677  0  2.129974  0
O  O79  1  0.21445052  0.36473974  0.21843037  1  0  -0.666084  0  1.891098  0  0  -0.618325  0  2.121252  0  0  -0.639043  0  2.10797  0  0  -0.357643  -0.603674  0  2.129911  0
O  O80  1  0.68589690  0.89168114  0.80637456  1  0  -0.660615  0  1.966887  0  0  -0.60978  0  2.212562  0  0  -0.630745  0  2.200735  0  0  -0.341136  -0.594867  0  2.220001  0
O  O81  1  0.31411855  0.10830690  0.19362883  1  0  -0.660618  0  1.966852  0  0  -0.609773  0  2.212522  0  0  -0.630738  0  2.200699  0  0  -0.34112  -0.594859  0  2.219952  0
O  O82  1  0.33649460  0.71753053  0.28223470  1  0  -0.511214  0  2.090033  0  0  -0.460814  0  2.302824  0  0  -0.481069  0  2.294358  0  0  -0.350075  -0.446434  0  2.308138  0
O  O83  1  0.66350616  0.28246922  0.71776436  1  0  -0.511204  0  2.090068  0  0  -0.460794  0  2.302837  0  0  -0.481049  0  2.294368  0  0  -0.350062  -0.446411  0  2.308157  0
O  O84  1  0.40131690  0.87062814  0.39539478  1  0  -0.637098  0  2.159316  0  0  -0.55084  0  2.426324  0  0  -0.583907  0  2.415456  0  0  -0.319834  -0.52787  0  2.433112  0
O  O85  1  0.59868147  0.12937160  0.60460661  1  0  -0.637047  0  2.159245  0  0  -0.550788  0  2.426232  0  0  -0.583872  0  2.415401  0  0  -0.319809  -0.527818  0  2.433026  0
O  O86  1  0.23378219  0.94860744  0.59372383  1  0  -0.614936  0  2.121808  0  0  -0.538799  0  2.401107  0  0  -0.570418  0  2.390058  0  0  -0.317201  -0.516632  0  2.408307  0
O  O87  1  0.76620856  0.05139760  0.40627932  1  0  -0.614803  0  2.12196  0  0  -0.538671  0  2.401266  0  0  -0.570286  0  2.390217  0  0  -0.317134  -0.516493  0  2.408455  0
