# generated using pymatgen
data_ZnH19C22(NO2)3
_symmetry_space_group_name_H-M   'P 1'
_cell_length_a   9.60507295
_cell_length_b   14.12506212
_cell_length_c   14.47500000
_cell_angle_alpha   99.66893223
_cell_angle_beta   103.35451320
_cell_angle_gamma   107.15371374
_symmetry_Int_Tables_number   1
_chemical_formula_structural   ZnH19C22(NO2)3
_chemical_formula_sum   'Zn2 H38 C44 N6 O12'
_cell_volume   1765.91035670
_cell_formula_units_Z   2
loop_
 _symmetry_equiv_pos_site_id
 _symmetry_equiv_pos_as_xyz
  1  'x, y, z'
loop_
 _atom_site_type_symbol
 _atom_site_label
 _atom_site_symmetry_multiplicity
 _atom_site_fract_x
 _atom_site_fract_y
 _atom_site_fract_z
 _atom_site_occupancy
 _atom_site_hle17_bader_spin_density
 _atom_site_hle17_ddec_charge
 _atom_site_hle17_ddec_spin_density
 _atom_site_hle17_ddec_sum_bond_order
 _atom_site_hle17_magmom
 _atom_site_hse06_10hf_bader_spin_density
 _atom_site_hse06_10hf_ddec_charge
 _atom_site_hse06_10hf_ddec_spin_density
 _atom_site_hse06_10hf_ddec_sum_bond_order
 _atom_site_hse06_10hf_magmom
 _atom_site_hse06_bader_spin_density
 _atom_site_hse06_ddec_charge
 _atom_site_hse06_ddec_spin_density
 _atom_site_hse06_ddec_sum_bond_order
 _atom_site_hse06_magmom
 _atom_site_pbe_bader_charge
 _atom_site_pbe_bader_spin_density
 _atom_site_pbe_cm5_charge
 _atom_site_pbe_ddec_charge
 _atom_site_pbe_ddec_spin_density
 _atom_site_pbe_ddec_sum_bond_order
 _atom_site_pbe_magmom
Zn  Zn0  1  0.37348032  0.54078297  0.67399577  1  0  1.020478  0  1.793649  0  0  0.845037  0  2.245234  0  0  0.897561  0  2.189202  0  1.294999  0  0.666354  0.80837  0  2.283471  0
Zn  Zn1  1  0.62651901  0.45921464  0.32600926  1  0  1.020481  0  1.793699  0  0  0.84502  0  2.245308  0  0  0.897545  0  2.189271  0  1.295034  0  0.666379  0.808351  0  2.283549  0
H  H2  1  0.41943179  0.84607169  0.59298532  1  0  0.096331  0  0.952621  0  0  0.106203  0  1.013708  0  0  0.109306  0  1.011614  0  0.115388  0  0.102277  0.103979  0  1.015177  0
H  H3  1  0.58055509  0.15392669  0.40700894  1  0  0.096332  0  0.952552  0  0  0.106198  0  1.013669  0  0  0.1093  0  1.011575  0  0.115494  0  0.102253  0.103974  0  1.015138  0
H  H4  1  0.54989875  0.02978245  0.59933512  1  0  0.111902  0  0.948836  0  0  0.123381  0  1.004695  0  0  0.126452  0  1.00434  0  0.08298  0  0.105419  0.121227  0  1.005041  0
H  H5  1  0.45009336  0.97021363  0.40065612  1  0  0.111997  0  0.948737  0  0  0.123442  0  1.004629  0  0  0.126511  0  1.004278  0  0.083052  0  0.105467  0.121288  0  1.004975  0
H  H6  1  0.94877148  0.03497843  0.81295589  1  0  0.115462  0  0.930253  0  0  0.127486  0  0.982851  0  0  0.131237  0  0.981536  0  0.113212  0  0.108711  0.124831  0  0.983868  0
H  H7  1  0.05121781  0.96501842  0.18703919  1  0  0.115505  0  0.930267  0  0  0.127537  0  0.982839  0  0  0.131293  0  0.981522  0  0.113035  0  0.108742  0.124883  0  0.983857  0
H  H8  1  0.81183340  0.85210876  0.81104126  1  0  0.098948  0  0.943141  0  0  0.10881  0  1.001402  0  0  0.112617  0  0.998362  0  0.084492  0  0.104004  0.106069  0  1.003538  0
H  H9  1  0.18814987  0.14788885  0.18895786  1  0  0.098995  0  0.943152  0  0  0.108805  0  1.001469  0  0  0.112645  0  0.998392  0  0.084176  0  0.104009  0.106068  0  1.003603  0
H  H10  1  0.54775999  0.31617323  0.81099597  1  0  0.105815  0  0.937613  0  0  0.115244  0  0.995877  0  0  0.119283  0  0.992584  0  0.108477  0  0.105841  0.112352  0  0.998248  0
H  H11  1  0.45224495  0.68382285  0.18900208  1  0  0.10578  0  0.937636  0  0  0.115185  0  0.995935  0  0  0.119223  0  0.992643  0  0.108293  0  0.105795  0.112293  0  0.998308  0
H  H12  1  0.68327070  0.18848074  0.82562818  1  0  0.108814  0  0.940239  0  0  0.120948  0  0.995065  0  0  0.124224  0  0.994068  0  0.076153  0  0.106105  0.118649  0  0.995853  0
H  H13  1  0.31672758  0.81151074  0.17436394  1  0  0.108769  0  0.940242  0  0  0.120907  0  0.995074  0  0  0.12418  0  0.994073  0  0.076538  0  0.106076  0.118603  0  0.995867  0
H  H14  1  0.81776421  0.23765522  0.56936283  1  0  0.109264  0  0.946953  0  0  0.120519  0  1.005309  0  0  0.124453  0  1.002922  0  0.053151  0  0.106584  0.117726  0  1.007119  0
H  H15  1  0.18224780  0.76234622  0.43063510  1  0  0.10938  0  0.946925  0  0  0.120654  0  1.005255  0  0  0.12459  0  1.002866  0  0.053494  0  0.106633  0.117861  0  1.007064  0
H  H16  1  0.67642386  0.36083580  0.55206345  1  0  0.114662  0  0.957032  0  0  0.121333  0  1.023297  0  0  0.12509  0  1.020175  0  0.12817  0  0.107594  0.118605  0  1.025569  0
H  H17  1  0.32359521  0.63917101  0.44794128  1  0  0.114548  0  0.95706  0  0  0.121173  0  1.0234  0  0  0.124929  0  1.020281  0  0.128133  0  0.107543  0.118446  0  1.025667  0
H  H18  1  0.41217091  0.68574942  0.86366493  1  0  0.09592  0  0.933048  0  0  0.104816  0  0.9904  0  0  0.107293  0  0.988508  0  0.122237  0  0.124531  0.102951  0  0.991856  0
H  H19  1  0.58782652  0.31425279  0.13633504  1  0  0.095979  0  0.93301  0  0  0.104828  0  0.990409  0  0  0.107304  0  0.988518  0  0.122309  0  0.124542  0.102963  0  0.991865  0
H  H20  1  0.28658723  0.68558779  0.00028493  1  0  0.120808  0  0.935793  0  0  0.132331  0  0.99093  0  0  0.135256  0  0.990597  0  0.099086  0  0.118519  0.130168  0  0.991401  0
H  H21  1  0.71341447  0.31441442  0.99971846  1  0  0.120802  0  0.935665  0  0  0.13232  0  0.99082  0  0  0.135246  0  0.990487  0  0.099446  0  0.118528  0.130153  0  0.99129  0
H  H22  1  0.93825354  0.40126529  0.82081666  1  0  0.117286  0  0.983957  0  0  0.11799  0  1.059792  0  0  0.120364  0  1.060761  0  0.134212  0  0.11006  0.116213  0  1.059374  0
H  H23  1  0.06175220  0.59873232  0.17919281  1  0  0.117328  0  0.983977  0  0  0.117944  0  1.059881  0  0  0.120318  0  1.060851  0  0.134234  0  0.110046  0.116173  0  1.059457  0
H  H24  1  0.07301222  0.41603510  0.69054168  1  0  0.094258  0  0.932408  0  0  0.100644  0  0.996283  0  0  0.103534  0  0.993778  0  0.165668  0  0.123974  0.09847  0  0.998169  0
H  H25  1  0.92698603  0.58396251  0.30946457  1  0  0.094244  0  0.932396  0  0  0.100645  0  0.996255  0  0  0.103537  0  0.993749  0  0.165567  0  0.123938  0.098472  0  0.998141  0
H  H26  1  0.31402546  0.45625470  0.45920024  1  0  0.081272  0  0.960123  0  0  0.087087  0  1.029644  0  0  0.089646  0  1.024266  0  0.181564  0  0.131698  0.084984  0  1.033734  0
H  H27  1  0.68598025  0.54374904  0.54080470  1  0  0.081242  0  0.960117  0  0  0.087053  0  1.029645  0  0  0.089613  0  1.024267  0  0.181616  0  0.131694  0.084951  0  1.033736  0
H  H28  1  0.89710032  0.39320513  0.43394815  1  0  0.112567  0  0.94688  0  0  0.130051  0  1.014157  0  0  0.130855  0  1.013802  0  0.105275  0  0.105969  0.129339  0  1.014556  0
H  H29  1  0.10290151  0.60679938  0.56605287  1  0  0.112692  0  0.946821  0  0  0.130119  0  1.014154  0  0  0.130922  0  1.013797  0  0.105354  0  0.106003  0.129411  0  1.014551  0
H  H30  1  0.85134894  0.28799637  0.33191392  1  0  0.098845  0  0.941753  0  0  0.118821  0  1.003972  0  0  0.119358  0  1.004082  0  0.086997  0  0.10562  0.118358  0  1.003953  0
H  H31  1  0.14865649  0.71200890  0.66808709  1  0  0.098863  0  0.941777  0  0  0.118866  0  1.003948  0  0  0.119404  0  1.004057  0  0.086895  0  0.105648  0.118405  0  1.003925  0
H  H32  1  0.93249868  0.28015989  0.45336833  1  0  0.094873  0  0.933928  0  0  0.115622  0  0.996249  0  0  0.115862  0  0.995849  0  0.037322  0  0.10371  0.115298  0  0.99667  0
H  H33  1  0.06750782  0.71984538  0.54663491  1  0  0.094955  0  0.933963  0  0  0.115751  0  0.996209  0  0  0.115994  0  0.995807  0  0.037511  0  0.103759  0.115424  0  0.996636  0
H  H34  1  0.00264277  0.30446830  0.24174476  1  0  0.09536  0  0.937736  0  0  0.116757  0  0.997218  0  0  0.117401  0  0.99745  0  0.059319  0  0.104894  0.116237  0  0.997101  0
H  H35  1  0.99736319  0.69554004  0.75825682  1  0  0.095313  0  0.937737  0  0  0.116713  0  0.997224  0  0  0.117354  0  0.997459  0  0.059523  0  0.104851  0.116192  0  0.997109  0
H  H36  1  0.14903600  0.42702149  0.27574412  1  0  0.100367  0  0.942363  0  0  0.118252  0  1.008252  0  0  0.118002  0  1.010115  0  0.062427  0  0.101443  0.118323  0  1.007028  0
H  H37  1  0.85097288  0.57298837  0.72425886  1  0  0.100475  0  0.942331  0  0  0.118363  0  1.008202  0  0  0.11811  0  1.010069  0  0.062519  0  0.101524  0.118434  0  1.006978  0
H  H38  1  0.19684317  0.31820014  0.29492458  1  0  0.115821  0  0.951395  0  0  0.134369  0  1.01379  0  0  0.134597  0  1.014529  0  0.097042  0  0.107161  0.134042  0  1.013437  0
H  H39  1  0.80316239  0.68180743  0.70507682  1  0  0.115782  0  0.951375  0  0  0.134342  0  1.013769  0  0  0.134567  0  1.014511  0  0.0974  0  0.107136  0.134015  0  1.013416  0
C  C40  1  0.53004008  0.72910131  0.70002859  1  0  0.614601  0  3.951142  0  0  0.571685  0  4.24111  0  0  0.605846  0  4.234789  0  1.527335  0  0.189622  0.549222  0  4.244646  0
C  C41  1  0.46994399  0.27089783  0.29996883  1  0  0.614513  0  3.95145  0  0  0.571552  0  4.241479  0  0  0.605714  0  4.23516  0  1.526955  0  0.189539  0.54909  0  4.245012  0
C  C42  1  0.60786571  0.83787977  0.70161215  1  0  -0.074115  0  3.777366  0  0  -0.061849  0  4.022583  0  0  -0.071739  0  4.046647  0  0.00062  0  -0.030913  -0.057777  0  4.009485  0
C  C43  1  0.39211772  0.16211401  0.29838360  1  0  -0.074099  0  3.777453  0  0  -0.061808  0  4.022654  0  0  -0.0717  0  4.04673  0  0.000369  0  -0.030857  -0.057736  0  4.009555  0
C  C44  1  0.53453207  0.88818185  0.64194873  1  0  -0.044919  0  3.755366  0  0  -0.065064  0  4.003137  0  0  -0.062339  0  4.022762  0  -0.124735  0  -0.083958  -0.065912  0  3.990249  0
C  C45  1  0.46545627  0.11181730  0.35804658  1  0  -0.044747  0  3.755566  0  0  -0.064902  0  4.003343  0  0  -0.062173  0  4.022963  0  -0.124425  0  -0.083848  -0.065751  0  3.990455  0
C  C46  1  0.60736084  0.99008979  0.64467874  1  0  -0.206499  0  3.775255  0  0  -0.22524  0  4.023228  0  0  -0.232798  0  4.044347  0  -0.001637  0  -0.109379  -0.220235  0  4.008796  0
C  C47  1  0.39262885  0.00990782  0.35531307  1  0  -0.206644  0  3.775287  0  0  -0.22533  0  4.02328  0  0  -0.232887  0  4.044395  0  -0.001612  0  -0.109419  -0.220325  0  4.00885  0
C  C48  1  0.75703932  0.04152262  0.70612828  1  0  0.281456  0  3.800773  0  0  0.274753  0  4.065192  0  0  0.286074  0  4.081019  0  0.414383  0  0.084596  0.266987  0  4.054402  0
C  C49  1  0.24295092  0.95847193  0.29386380  1  0  0.281453  0  3.800601  0  0  0.274693  0  4.065096  0  0  0.286012  0  4.080923  0  0.414267  0  0.084511  0.266927  0  4.054304  0
C  C50  1  0.83257351  0.99255640  0.76560754  1  0  -0.191019  0  3.770754  0  0  -0.212449  0  4.022657  0  0  -0.219098  0  4.042403  0  -0.042334  0  -0.104764  -0.208046  0  4.009116  0
C  C51  1  0.16741578  0.00744044  0.23438616  1  0  -0.191127  0  3.770844  0  0  -0.212532  0  4.022726  0  0  -0.219188  0  4.042487  0  -0.041971  0  -0.104818  -0.208129  0  4.009186  0
C  C52  1  0.75689482  0.89141143  0.76380446  1  0  -0.0552  0  3.77207  0  0  -0.075516  0  4.022125  0  0  -0.07345  0  4.042411  0  -0.031763  0  -0.085026  -0.075863  0  4.008724  0
C  C53  1  0.24308765  0.10858465  0.23619083  1  0  -0.055235  0  3.772164  0  0  -0.075518  0  4.022226  0  0  -0.073482  0  4.042502  0  -0.031611  0  -0.085035  -0.075865  0  4.008826  0
C  C54  1  0.52328488  0.42095454  0.67350177  1  0  0.622227  0  3.942804  0  0  0.577564  0  4.227465  0  0  0.611918  0  4.222193  0  1.546683  0  0.189879  0.554346  0  4.23007  0
C  C55  1  0.47672379  0.57904460  0.32649804  1  0  0.622024  0  3.943002  0  0  0.577392  0  4.227618  0  0  0.611746  0  4.222355  0  1.546509  0  0.189902  0.554176  0  4.23022  0
C  C56  1  0.60628069  0.34709323  0.68197656  1  0  -0.074517  0  3.772824  0  0  -0.051999  0  4.003752  0  0  -0.062015  0  4.028109  0  -0.038995  0  -0.022932  -0.045658  0  3.987386  0
C  C57  1  0.39372771  0.65290744  0.31802276  1  0  -0.074523  0  3.772614  0  0  -0.052011  0  4.00351  0  0  -0.062026  0  4.027868  0  -0.039332  0  -0.022982  -0.045679  0  3.987157  0
C  C58  1  0.60709179  0.29784827  0.75856807  1  0  -0.05058  0  3.752844  0  0  -0.074899  0  4.002623  0  0  -0.072412  0  4.021638  0  -0.025599  0  -0.083455  -0.076209  0  3.989531  0
C  C59  1  0.39291248  0.70214857  0.24142861  1  0  -0.050513  0  3.752981  0  0  -0.074805  0  4.002741  0  0  -0.072321  0  4.021761  0  -0.025096  0  -0.083378  -0.076112  0  3.98965  0
C  C60  1  0.68188539  0.22768305  0.76682467  1  0  -0.196161  0  3.784597  0  0  -0.217796  0  4.041215  0  0  -0.224305  0  4.061007  0  -0.06042  0  -0.103414  -0.213479  0  4.027725  0
C  C61  1  0.31811662  0.77231149  0.23317198  1  0  -0.196295  0  3.784703  0  0  -0.217924  0  4.041342  0  0  -0.22443  0  4.061125  0  -0.061283  0  -0.103501  -0.213604  0  4.027854  0
C  C62  1  0.75747457  0.20730668  0.69815158  1  0  0.266764  0  3.811917  0  0  0.262364  0  4.073618  0  0  0.273211  0  4.089311  0  0.373751  0  0.082705  0.254985  0  4.062821  0
C  C63  1  0.24252823  0.79268940  0.30184406  1  0  0.266956  0  3.811907  0  0  0.26251  0  4.073646  0  0  0.273362  0  4.089332  0  0.374033  0  0.082741  0.255131  0  4.062851  0
C  C64  1  0.75869521  0.25598554  0.62194519  1  0  -0.184071  0  3.75203  0  0  -0.204878  0  4.006141  0  0  -0.211412  0  4.025627  0  -0.009018  0  -0.098813  -0.200561  0  3.992906  0
C  C65  1  0.24131466  0.74401590  0.37805311  1  0  -0.184364  0  3.752247  0  0  -0.205177  0  4.006367  0  0  -0.211716  0  4.025854  0  -0.009199  0  -0.098837  -0.20086  0  3.993134  0
C  C66  1  0.68212218  0.32554406  0.61361694  1  0  -0.047929  0  3.723688  0  0  -0.072002  0  3.973498  0  0  -0.069712  0  3.993151  0  0.0013  0  -0.078163  -0.07317  0  3.960048  0
C  C67  1  0.31788848  0.67445891  0.38638449  1  0  -0.047653  0  3.723566  0  0  -0.07168  0  3.973348  0  0  -0.069389  0  3.993001  0  0.001684  0  -0.078095  -0.072845  0  3.9599  0
C  C68  1  0.30604710  0.62562225  0.85757141  1  0  0.135364  0  3.695877  0  0  0.105577  0  3.943291  0  0  0.112339  0  3.962646  0  0.559451  0  0.057887  0.101181  0  3.9303  0
C  C69  1  0.69394914  0.37437766  0.14243076  1  0  0.135296  0  3.695885  0  0  0.105527  0  3.943297  0  0  0.112288  0  3.962651  0  0.558547  0  0.057855  0.10113  0  3.930306  0
C  C70  1  0.23798969  0.62475740  0.93255934  1  0  -0.168812  0  3.688502  0  0  -0.188304  0  3.9319  0  0  -0.197058  0  3.954257  0  -0.053969  0  -0.068782  -0.182726  0  3.917026  0
C  C71  1  0.76201083  0.37524251  0.06744486  1  0  -0.168677  0  3.688369  0  0  -0.188158  0  3.931776  0  0  -0.196914  0  3.954135  0  -0.053897  0  -0.068715  -0.182576  0  3.916898  0
C  C72  1  0.10625830  0.54192589  0.92076120  1  0  0.20295  0  3.795357  0  0  0.205136  0  4.044022  0  0  0.210118  0  4.065711  0  0.315581  0  0.11019  0.201996  0  4.029365  0
C  C73  1  0.89374396  0.45807326  0.07924523  1  0  0.20295  0  3.795436  0  0  0.205086  0  4.044093  0  0  0.210072  0  4.065783  0  0.315873  0  0.110221  0.201947  0  4.029433  0
C  C74  1  0.04282909  0.46501961  0.83250832  1  0  -0.169287  0  3.678018  0  0  -0.188356  0  3.923324  0  0  -0.196397  0  3.946075  0  -0.018367  0  -0.070363  -0.18336  0  3.908364  0
C  C75  1  0.95717491  0.53497877  0.16750032  1  0  -0.169302  0  3.677931  0  0  -0.188263  0  3.923246  0  0  -0.196309  0  3.946002  0  -0.018165  0  -0.07037  -0.183273  0  3.908286  0
C  C76  1  0.11668121  0.47315254  0.76080663  1  0  0.150604  0  3.663461  0  0  0.121137  0  3.910265  0  0  0.128041  0  3.928047  0  0.460439  0  0.060689  0.116676  0  3.898407  0
C  C77  1  0.88331851  0.52684583  0.23919928  1  0  0.150621  0  3.663236  0  0  0.121119  0  3.910009  0  0  0.128022  0  3.927791  0  0.459945  0  0.060769  0.116658  0  3.898154  0
C  C78  1  0.20213775  0.42740834  0.47202640  1  0  0.387264  0  3.736901  0  0  0.313189  0  4.015794  0  0  0.341956  0  4.014749  0  1.310196  0  0.177079  0.293898  0  4.016113  0
C  C79  1  0.79786582  0.57259540  0.52797684  1  0  0.387311  0  3.736616  0  0  0.313274  0  4.015483  0  0  0.342041  0  4.014436  0  1.310245  0  0.17711  0.293981  0  4.015806  0
C  C80  1  0.93309133  0.33107020  0.40363383  1  0  -0.163984  0  3.662318  0  0  -0.269176  0  3.915359  0  0  -0.264339  0  3.924673  0  0.24359  0  -0.135131  -0.272187  0  3.909077  0
C  C81  1  0.06691743  0.66893737  0.59636738  1  0  -0.164282  0  3.662389  0  0  -0.269471  0  3.915412  0  0  -0.264633  0  3.924719  0  0.24329  0  -0.135274  -0.272485  0  3.909137  0
C  C82  1  0.11058469  0.35441188  0.29622061  1  0  -0.171619  0  3.646891  0  0  -0.271674  0  3.890906  0  0  -0.268475  0  3.902635  0  0.247342  0  -0.131487  -0.273539  0  3.882878  0
C  C83  1  0.88942075  0.64559340  0.70378246  1  0  -0.171676  0  3.646793  0  0  -0.271756  0  3.890813  0  0  -0.268551  0  3.902543  0  0.246647  0  -0.131507  -0.27362  0  3.882785  0
N  N84  1  0.24631185  0.55129213  0.77332038  1  0  -0.302021  0  3.258343  0  0  -0.223872  0  3.525655  0  0  -0.242952  0  3.542087  0  -1.242678  0  -0.312013  -0.211194  0  3.514584  0
N  N85  1  0.75368573  0.44870625  0.22668244  1  0  -0.302123  0  3.258264  0  0  -0.223931  0  3.525536  0  0  -0.243009  0  3.541968  0  -1.242324  0  -0.312077  -0.211254  0  3.514465  0
N  N86  1  0.04297696  0.54346024  0.99993067  1  0  -0.118197  0  2.943804  0  0  -0.098891  0  3.219961  0  0  -0.097976  0  3.225187  0  -0.455655  0  -0.123486  -0.099544  0  3.216524  0
N  N87  1  0.95702930  0.45654043  0.00007593  1  0  -0.118264  0  2.94388  0  0  -0.098875  0  3.220013  0  0  -0.097964  0  3.22524  0  -0.416097  0  -0.123521  -0.099529  0  3.216575  0
N  N88  1  0.08539439  0.37156327  0.39289584  1  0  -0.083889  0  3.469287  0  0  0.022729  0  3.700784  0  0  0.00236  0  3.724887  0  -1.183127  0  -0.275695  0.036348  0  3.684022  0
N  N89  1  0.91460970  0.62844353  0.60710590  1  0  -0.083791  0  3.469038  0  0  0.022798  0  3.700514  0  0  0.002428  0  3.72461  0  -1.183039  0  -0.275668  0.036417  0  3.683755  0
O  O90  1  0.40569636  0.67589445  0.63034930  1  0  -0.640522  0  1.996473  0  0  -0.57479  0  2.24775  0  0  -0.604481  0  2.237128  0  -1.167799  0  -0.327929  -0.554011  0  2.253999  0
O  O91  1  0.59430031  0.32410010  0.36964515  1  0  -0.640579  0  1.996652  0  0  -0.574808  0  2.247909  0  0  -0.604494  0  2.23727  0  -1.167628  0  -0.327929  -0.554027  0  2.254156  0
O  O92  1  0.58584075  0.69053480  0.76614891  1  0  -0.632054  0  1.910118  0  0  -0.583363  0  2.131705  0  0  -0.607072  0  2.120012  0  -1.175335  0  -0.333273  -0.566818  0  2.138985  0
O  O93  1  0.41413674  0.30946817  0.23385503  1  0  -0.632034  0  1.910294  0  0  -0.583323  0  2.131892  0  0  -0.607032  0  2.120201  0  -1.175195  0  -0.333259  -0.566779  0  2.139172  0
O  O94  1  0.52648007  0.46880839  0.60660476  1  0  -0.621526  0  1.960179  0  0  -0.56404  0  2.194479  0  0  -0.591562  0  2.18487  0  -1.177739  0  -0.315046  -0.544747  0  2.200386  0
O  O95  1  0.47353087  0.53119305  0.39339646  1  0  -0.621408  0  1.960358  0  0  -0.563937  0  2.194647  0  0  -0.591459  0  2.185039  0  -1.177678  0  -0.31505  -0.544643  0  2.200551  0
O  O96  1  0.44951310  0.43455156  0.73511225  1  0  -0.632067  0  1.953209  0  0  -0.573657  0  2.185665  0  0  -0.60134  0  2.173713  0  -1.153513  0  -0.338545  -0.554029  0  2.192995  0
O  O97  1  0.55049264  0.56544605  0.26488686  1  0  -0.631963  0  1.953247  0  0  -0.573559  0  2.185667  0  0  -0.601242  0  2.173722  0  -1.153376  0  -0.33854  -0.553931  0  2.192993  0
O  O98  1  0.83841375  0.14083448  0.70741374  1  0  -0.294015  0  2.300643  0  0  -0.240195  0  2.525664  0  0  -0.255138  0  2.523332  0  -1.091501  0  -0.165365  -0.229174  0  2.526592  0
O  O99  1  0.16158279  0.85915777  0.29257686  1  0  -0.294046  0  2.300732  0  0  -0.240197  0  2.525792  0  0  -0.25514  0  2.523459  0  -1.091837  0  -0.16534  -0.229176  0  2.52672  0
O  O100  1  0.18462362  0.44713283  0.55642972  1  0  -0.547262  0  2.102797  0  0  -0.481822  0  2.372937  0  0  -0.508182  0  2.362053  0  -1.17445  0  -0.305173  -0.463589  0  2.379802  0
O  O101  1  0.81537983  0.55286862  0.44357312  1  0  -0.547258  0  2.102678  0  0  -0.481853  0  2.372831  0  0  -0.508215  0  2.361948  0  -1.174426  0  -0.305205  -0.463618  0  2.379697  0
