# generated using pymatgen
data_Zn2H66(C19O8)3
_symmetry_space_group_name_H-M   'P 1'
_cell_length_a   9.71854640
_cell_length_b   20.33148165
_cell_length_c   20.33145557
_cell_angle_alpha   119.99805215
_cell_angle_beta   89.99907380
_cell_angle_gamma   90.00070713
_symmetry_Int_Tables_number   1
_chemical_formula_structural   Zn2H66(C19O8)3
_chemical_formula_sum   'Zn4 H132 C114 O48'
_cell_volume   3479.18857505
_cell_formula_units_Z   2
loop_
 _symmetry_equiv_pos_site_id
 _symmetry_equiv_pos_as_xyz
  1  'x, y, z'
loop_
 _atom_site_type_symbol
 _atom_site_label
 _atom_site_symmetry_multiplicity
 _atom_site_fract_x
 _atom_site_fract_y
 _atom_site_fract_z
 _atom_site_occupancy
 _atom_site_pbe_bader_charge
 _atom_site_pbe_bader_spin_density
 _atom_site_pbe_cm5_charge
 _atom_site_pbe_ddec_charge
 _atom_site_pbe_ddec_spin_density
 _atom_site_pbe_ddec_sum_bond_order
 _atom_site_pbe_magmom
Zn  Zn0  1  0.42881093  0.66666854  0.33332300  1  1.357161  0  0.65448  0.982852  0  2.131315  0
Zn  Zn1  1  0.07118991  0.33333132  0.66666863  1  1.357441  0  0.654518  0.982813  0  2.131363  0
Zn  Zn2  1  0.57118855  0.33333750  0.66666742  1  1.357303  0  0.654482  0.982734  0  2.131425  0
Zn  Zn3  1  0.92881471  0.66666336  0.33332235  1  1.357327  0  0.654475  0.982837  0  2.131334  0
H  H4  1  0.49576930  0.56150864  0.20358779  1  0.646254  0  0.282777  0.373799  0  0.973095  0
H  H5  1  0.49574683  0.64208124  0.43847864  1  0.645048  0  0.282846  0.373951  0  0.972918  0
H  H6  1  0.49577076  0.79640258  0.35790553  1  0.643812  0  0.282809  0.373864  0  0.972986  0
H  H7  1  0.00425574  0.43849189  0.64209598  1  0.64481  0  0.282769  0.373802  0  0.973067  0
H  H8  1  0.00424181  0.35792643  0.79641027  1  0.644383  0  0.282761  0.373781  0  0.973136  0
H  H9  1  0.00423350  0.20359756  0.56151054  1  0.64587  0  0.282824  0.373898  0  0.972971  0
H  H10  1  0.50424870  0.43848007  0.79640915  1  0.646129  0  0.282852  0.373976  0  0.972889  0
H  H11  1  0.50424133  0.35791646  0.56151423  1  0.644827  0  0.282797  0.373822  0  0.973045  0
H  H12  1  0.50424518  0.20360242  0.64209578  1  0.643814  0  0.28282  0.373878  0  0.972945  0
H  H13  1  0.99576740  0.56151118  0.35791021  1  0.644985  0  0.28284  0.373935  0  0.972898  0
H  H14  1  0.99576693  0.64208531  0.20358528  1  0.644086  0  0.282806  0.373873  0  0.972958  0
H  H15  1  0.99574952  0.79639750  0.43847514  1  0.645971  0  0.282851  0.373976  0  0.972906  0
H  H16  1  0.63987696  0.59435512  0.24730976  1  0.638779  0  0.28782  0.378655  0  0.961688  0
H  H17  1  0.63986887  0.65294749  0.40562907  1  0.639492  0  0.287773  0.378463  0  0.961894  0
H  H18  1  0.63988452  0.75267977  0.34703357  1  0.655405  0  0.287792  0.378581  0  0.961811  0
H  H19  1  0.86012696  0.40563991  0.65295753  1  0.639371  0  0.287823  0.378534  0  0.96182  0
H  H20  1  0.86012555  0.34705174  0.75268978  1  0.65591  0  0.287752  0.378492  0  0.961894  0
H  H21  1  0.86012693  0.24731894  0.59436217  1  0.638811  0  0.287839  0.37859  0  0.961747  0
H  H22  1  0.36012560  0.40563075  0.75269002  1  0.638839  0  0.287762  0.378543  0  0.961808  0
H  H23  1  0.36013267  0.34704618  0.59436488  1  0.639445  0  0.287814  0.378545  0  0.961805  0
H  H24  1  0.36013142  0.24731258  0.65295678  1  0.655531  0  0.287813  0.378604  0  0.961744  0
H  H25  1  0.13987149  0.59435955  0.34703653  1  0.639374  0  0.287817  0.378614  0  0.961732  0
H  H26  1  0.13988113  0.65295794  0.24730882  1  0.655339  0  0.287782  0.378577  0  0.96181  0
H  H27  1  0.13987357  0.75268478  0.40562763  1  0.638839  0  0.287787  0.378544  0  0.961763  0
H  H28  1  0.95205647  0.39157539  0.20786782  1  0.114185  0  0.109116  0.125221  0  1.052328  0
H  H29  1  0.95205827  0.81635580  0.60845648  1  0.107065  0  0.109128  0.125256  0  1.052121  0
H  H30  1  0.95204969  0.79211696  0.18368291  1  0.104564  0  0.109114  0.125159  0  1.052257  0
H  H31  1  0.54796491  0.60844668  0.81634721  1  0.107209  0  0.109144  0.125254  0  1.052071  0
H  H32  1  0.54793309  0.18369035  0.79212068  1  0.104592  0  0.109079  0.12513  0  1.052414  0
H  H33  1  0.54795250  0.20787761  0.39156977  1  0.114059  0  0.109117  0.125246  0  1.05218  0
H  H34  1  0.04792551  0.60843594  0.79211142  1  0.113856  0  0.109098  0.125224  0  1.052131  0
H  H35  1  0.04795561  0.18367942  0.39156084  1  0.106993  0  0.109178  0.125338  0  1.052084  0
H  H36  1  0.04797756  0.20791216  0.81635330  1  0.104358  0  0.109157  0.125273  0  1.052077  0
H  H37  1  0.45203971  0.39156119  0.18367287  1  0.106785  0  0.109137  0.125213  0  1.052057  0
H  H38  1  0.45207256  0.81630016  0.20786954  1  0.104747  0  0.109097  0.125196  0  1.052234  0
H  H39  1  0.45204080  0.79208203  0.60845034  1  0.113491  0  0.109123  0.125296  0  1.051998  0
H  H40  1  0.78274888  0.28944708  0.15237062  1  0.068618  0  0.102316  0.102673  0  1.027562  0
H  H41  1  0.78274479  0.86296591  0.71059011  1  0.06477  0  0.102335  0.102711  0  1.0276  0
H  H42  1  0.78272958  0.84762656  0.13706290  1  0.073367  0  0.102365  0.102775  0  1.027673  0
H  H43  1  0.71728397  0.71057676  0.86295616  1  0.065224  0  0.102332  0.10264  0  1.02769  0
H  H44  1  0.71723362  0.13706420  0.84762130  1  0.072859  0  0.102286  0.102628  0  1.027672  0
H  H45  1  0.71725661  0.15236132  0.28942735  1  0.06878  0  0.102317  0.102689  0  1.027495  0
H  H46  1  0.21722488  0.71057426  0.84762714  1  0.068261  0  0.102375  0.102815  0  1.02753  0
H  H47  1  0.21724645  0.13704617  0.28942281  1  0.064938  0  0.102326  0.102706  0  1.027666  0
H  H48  1  0.21728945  0.15238589  0.86295948  1  0.072846  0  0.102299  0.102632  0  1.027806  0
H  H49  1  0.28274020  0.28942536  0.13704113  1  0.065117  0  0.102354  0.102751  0  1.027643  0
H  H50  1  0.28276689  0.86292747  0.15236383  1  0.07311  0  0.10236  0.102792  0  1.027394  0
H  H51  1  0.28273258  0.84761136  0.71058366  1  0.06809  0  0.102359  0.102773  0  1.027611  0
H  H52  1  0.94775538  0.21516670  0.92883912  1  0.05032  0  0.09751  0.093981  0  1.060255  0
H  H53  1  0.94776218  0.71370307  0.78482860  1  0.046519  0  0.097313  0.093739  0  1.060344  0
H  H54  1  0.94774379  0.07115713  0.28631711  1  0.04161  0  0.097448  0.093899  0  1.060304  0
H  H55  1  0.55224733  0.78482785  0.71370927  1  0.046659  0  0.097239  0.09368  0  1.060289  0
H  H56  1  0.55223322  0.28632322  0.07115218  1  0.041729  0  0.097511  0.093966  0  1.060252  0
H  H57  1  0.55221130  0.92883877  0.21515709  1  0.050393  0  0.097481  0.093995  0  1.060291  0
H  H58  1  0.05222557  0.78482877  0.07114811  1  0.050259  0  0.097416  0.093813  0  1.060074  0
H  H59  1  0.05221878  0.28631245  0.21514744  1  0.045726  0  0.097487  0.09391  0  1.060401  0
H  H60  1  0.05224231  0.92887402  0.71369445  1  0.041984  0  0.09728  0.093727  0  1.060199  0
H  H61  1  0.44775729  0.21515044  0.28630792  1  0.045946  0  0.097471  0.093945  0  1.060325  0
H  H62  1  0.44775596  0.71367676  0.92883842  1  0.041651  0  0.097567  0.094054  0  1.060083  0
H  H63  1  0.44777995  0.07112542  0.78481420  1  0.050682  0  0.09733  0.093833  0  1.060099  0
H  H64  1  0.12302130  0.31609636  0.98422754  1  0.130272  0  0.117189  0.138412  0  0.99204  0
H  H65  1  0.12302988  0.66818557  0.68390399  1  0.119335  0  0.117236  0.138445  0  0.991798  0
H  H66  1  0.12302329  0.01576447  0.33185113  1  0.131482  0  0.117169  0.13846  0  0.99205  0
H  H67  1  0.37697882  0.68390482  0.66819210  1  0.120087  0  0.117182  0.138378  0  0.99192  0
H  H68  1  0.37697500  0.33186321  0.01576095  1  0.138108  0  0.117183  0.138412  0  0.992072  0
H  H69  1  0.37694747  0.98423685  0.31609372  1  0.129924  0  0.117123  0.138354  0  0.991929  0
H  H70  1  0.87696274  0.68389357  0.01575245  1  0.129961  0  0.117154  0.138458  0  0.991975  0
H  H71  1  0.87696960  0.33185527  0.31609000  1  0.121413  0  0.117162  0.138391  0  0.99211  0
H  H72  1  0.87697824  0.98428586  0.66817961  1  0.138533  0  0.117244  0.138451  0  0.991924  0
H  H73  1  0.62300934  0.31609038  0.33184654  1  0.122292  0  0.117236  0.138574  0  0.992126  0
H  H74  1  0.62303580  0.66813482  0.98422373  1  0.131639  0  0.117165  0.138398  0  0.991827  0
H  H75  1  0.62304274  0.01570768  0.68388347  1  0.129675  0  0.117192  0.138387  0  0.991809  0
H  H76  1  0.15808696  0.43823509  0.24037121  1  0.05754  0  0.11452  0.105153  0  0.971464  0
H  H77  1  0.15811402  0.80217648  0.56175408  1  0.056231  0  0.114373  0.104919  0  0.9712  0
H  H78  1  0.15808462  0.75961421  0.19784768  1  0.062247  0  0.114509  0.10509  0  0.971461  0
H  H79  1  0.34190492  0.56175473  0.80218398  1  0.055998  0  0.114367  0.104885  0  0.97119  0
H  H80  1  0.34189889  0.19785212  0.75961776  1  0.061948  0  0.114507  0.105025  0  0.971601  0
H  H81  1  0.34192853  0.24038632  0.43823885  1  0.057535  0  0.114546  0.105126  0  0.971502  0
H  H82  1  0.84189296  0.56176914  0.75961513  1  0.05727  0  0.114549  0.10506  0  0.971419  0
H  H83  1  0.84192353  0.19785630  0.43824207  1  0.056247  0  0.114562  0.105222  0  0.971453  0
H  H84  1  0.84190971  0.24042759  0.80218077  1  0.061917  0  0.114395  0.104961  0  0.971155  0
H  H85  1  0.65807809  0.43823974  0.19784655  1  0.056541  0  0.114504  0.10509  0  0.971447  0
H  H86  1  0.65808618  0.80213559  0.24036739  1  0.062031  0  0.114549  0.105154  0  0.971479  0
H  H87  1  0.65812137  0.75956614  0.56174910  1  0.057363  0  0.114401  0.104945  0  0.97102  0
H  H88  1  0.06925595  0.50211484  0.21797968  1  0.145986  0  0.119965  0.124126  0  1.002049  0
H  H89  1  0.06924267  0.71591324  0.49788915  1  0.140322  0  0.119907  0.124095  0  1.002013  0
H  H90  1  0.06925947  0.78199927  0.28411487  1  0.130448  0  0.119905  0.124012  0  1.002227  0
H  H91  1  0.43076246  0.49788646  0.71591386  1  0.143431  0  0.119871  0.124102  0  1.002115  0
H  H92  1  0.43074007  0.28411656  0.78200016  1  0.130447  0  0.119911  0.124028  0  1.002243  0
H  H93  1  0.43075011  0.21799851  0.50212065  1  0.14587  0  0.119925  0.124058  0  1.002076  0
H  H94  1  0.93074867  0.49788117  0.78198538  1  0.145982  0  0.119928  0.123993  0  1.002228  0
H  H95  1  0.93074652  0.28412194  0.50212132  1  0.140116  0  0.119918  0.124091  0  1.002129  0
H  H96  1  0.93075544  0.21803210  0.71590826  1  0.130035  0  0.119923  0.124141  0  1.002125  0
H  H97  1  0.56925862  0.50212427  0.28411419  1  0.140143  0  0.119869  0.124  0  1.002268  0
H  H98  1  0.56925323  0.71587105  0.21799000  1  0.129873  0  0.119934  0.124086  0  1.002133  0
H  H99  1  0.56924936  0.78196065  0.49788025  1  0.144237  0  0.119926  0.124088  0  1.00207  0
H  H100  1  0.88068275  0.10807910  0.89877906  1  0.025737  0  0.084625  0.113369  0  1.058617  0
H  H101  1  0.88070710  0.79072147  0.89193133  1  0.02767  0  0.084633  0.11329  0  1.05887  0
H  H102  1  0.88068092  0.10121538  0.20929166  1  0.029384  0  0.084629  0.113329  0  1.058658  0
H  H103  1  0.61930065  0.89192825  0.79072379  1  0.027745  0  0.084618  0.113302  0  1.058688  0
H  H104  1  0.61930657  0.20930086  0.10121916  1  0.029494  0  0.084616  0.113307  0  1.058811  0
H  H105  1  0.61929991  0.89877677  0.10807197  1  0.025508  0  0.084637  0.113324  0  1.058773  0
H  H106  1  0.11932187  0.89191522  0.10121326  1  0.025788  0  0.084644  0.113337  0  1.058607  0
H  H107  1  0.11929546  0.20929020  0.10806528  1  0.027661  0  0.084618  0.113341  0  1.058716  0
H  H108  1  0.11927946  0.89879178  0.79071635  1  0.02947  0  0.084685  0.113381  0  1.058642  0
H  H109  1  0.38069060  0.10807005  0.20929013  1  0.027828  0  0.084588  0.113263  0  1.058624  0
H  H110  1  0.38068159  0.79070747  0.89877980  1  0.029643  0  0.084644  0.11336  0  1.058581  0
H  H111  1  0.38073147  0.10120803  0.89191708  1  0.02544  0  0.084629  0.11327  0  1.058747  0
H  H112  1  0.74177327  0.05899184  0.91158800  1  0.054842  0  0.087832  0.12281  0  1.023207  0
H  H113  1  0.74182416  0.85260768  0.94102473  1  0.047233  0  0.087905  0.122824  0  1.023163  0
H  H114  1  0.74177831  0.08841836  0.14739996  1  0.045879  0  0.087883  0.122822  0  1.023203  0
H  H115  1  0.75817903  0.94102136  0.85260980  1  0.047253  0  0.087905  0.122811  0  1.023226  0
H  H116  1  0.75821256  0.14740664  0.08841444  1  0.047854  0  0.087856  0.122816  0  1.023182  0
H  H117  1  0.75821571  0.91157805  0.05898384  1  0.05454  0  0.087842  0.122777  0  1.023198  0
H  H118  1  0.25821386  0.94100094  0.08841471  1  0.053807  0  0.087884  0.122886  0  1.023135  0
H  H119  1  0.25821442  0.14738840  0.05896878  1  0.046954  0  0.087931  0.122852  0  1.023154  0
H  H120  1  0.25817795  0.91158872  0.85260911  1  0.046219  0  0.087924  0.122817  0  1.023189  0
H  H121  1  0.24177311  0.05897221  0.14738916  1  0.04691  0  0.087947  0.122873  0  1.023076  0
H  H122  1  0.24178794  0.85259013  0.91158034  1  0.047883  0  0.087829  0.122749  0  1.02323  0
H  H123  1  0.24183007  0.08841256  0.94101613  1  0.055042  0  0.087936  0.122877  0  1.023087  0
H  H124  1  0.88996759  0.08376834  0.97096012  1  0.016005  0  0.08672  0.123176  0  0.999894  0
H  H125  1  0.88999636  0.88720103  0.91623328  1  0.016028  0  0.086749  0.123278  0  0.999839  0
H  H126  1  0.88997416  0.02903471  0.11280177  1  0.017907  0  0.086766  0.123338  0  0.999696  0
H  H127  1  0.61000576  0.91623054  0.88720323  1  0.015938  0  0.086738  0.123285  0  0.999879  0
H  H128  1  0.61001606  0.11280904  0.02904152  1  0.035271  0  0.086673  0.123128  0  0.999877  0
H  H129  1  0.61001488  0.97095840  0.08376239  1  0.015742  0  0.086708  0.123157  0  0.999825  0
H  H130  1  0.11002263  0.91622529  0.02904174  1  0.023774  0  0.086721  0.123227  0  0.999907  0
H  H131  1  0.11001238  0.11278873  0.08375278  1  0.015888  0  0.086694  0.123241  0  0.999846  0
H  H132  1  0.10999857  0.97097958  0.88720598  1  0.035451  0  0.086726  0.123271  0  0.999794  0
H  H133  1  0.38997519  0.08375517  0.11278787  1  0.015667  0  0.086716  0.123247  0  0.999847  0
H  H134  1  0.38997519  0.88718673  0.97095623  1  0.035289  0  0.086716  0.123142  0  0.999944  0
H  H135  1  0.39001135  0.02902267  0.91622350  1  0.023804  0  0.086708  0.123242  0  0.999731  0
C  C136  1  0.05430323  0.35801355  0.09994240  1  0.465508  0  0.103525  0.272841  0  4.028119  0
C  C137  1  0.05428669  0.74197630  0.64199195  1  0.47058  0  0.103386  0.272711  0  4.029089  0
C  C138  1  0.05428286  0.90004816  0.25806533  1  0.550069  0  0.103494  0.272772  0  4.028  0
C  C139  1  0.44573011  0.64198619  0.74197569  1  0.470621  0  0.103569  0.272862  0  4.028966  0
C  C140  1  0.44569368  0.25806256  0.90004694  1  0.549759  0  0.103536  0.272864  0  4.02832  0
C  C141  1  0.44570079  0.09995005  0.35802159  1  0.466641  0  0.10361  0.272974  0  4.027736  0
C  C142  1  0.94569830  0.64197079  0.90003825  1  0.466715  0  0.103607  0.273029  0  4.027831  0
C  C143  1  0.94570456  0.25806042  0.35800813  1  0.471504  0  0.103544  0.273007  0  4.027529  0
C  C144  1  0.94572382  0.09999135  0.74196935  1  0.550414  0  0.103591  0.272821  0  4.028154  0
C  C145  1  0.55427863  0.35800836  0.25805378  1  0.471303  0  0.103605  0.273016  0  4.027895  0
C  C146  1  0.55430168  0.74192074  0.09994459  1  0.550901  0  0.103704  0.273062  0  4.02752  0
C  C147  1  0.55429457  0.90000328  0.64197631  1  0.46708  0  0.103653  0.272902  0  4.028474  0
C  C148  1  0.95422089  0.35196886  0.14685887  1  -0.012166  0  -0.10097  -0.213557  0  3.97209  0
C  C149  1  0.95422844  0.79495285  0.64806425  1  0.023391  0  -0.10108  -0.21378  0  3.972984  0
C  C150  1  0.95420888  0.85312972  0.20509359  1  -0.004206  0  -0.101056  -0.213539  0  3.972534  0
C  C151  1  0.54580187  0.64805170  0.79494095  1  0.023805  0  -0.101143  -0.213788  0  3.973127  0
C  C152  1  0.54576431  0.20509499  0.85312975  1  -0.004456  0  -0.100967  -0.213474  0  3.972156  0
C  C153  1  0.54577819  0.14686829  0.35196564  1  -0.012447  0  -0.101011  -0.213726  0  3.972011  0
C  C154  1  0.04576624  0.64804232  0.85312249  1  -0.012274  0  -0.100991  -0.21363  0  3.972488  0
C  C155  1  0.04577927  0.20508807  0.35195820  1  0.022443  0  -0.101145  -0.21393  0  3.971718  0
C  C156  1  0.04582455  0.14689924  0.79494474  1  -0.002532  0  -0.101108  -0.213758  0  3.972854  0
C  C157  1  0.45420583  0.35196032  0.20508384  1  0.022763  0  -0.101178  -0.213842  0  3.971763  0
C  C158  1  0.45422796  0.79489949  0.14685650  1  -0.004228  0  -0.10107  -0.213782  0  3.972923  0
C  C159  1  0.45419556  0.85309524  0.64805156  1  -0.012459  0  -0.101007  -0.213643  0  3.972641  0
C  C160  1  0.85675035  0.29419393  0.11472186  1  -0.076599  0  -0.087629  -0.105073  0  3.973963  0
C  C161  1  0.85677392  0.82057667  0.70583698  1  -0.059647  0  -0.087533  -0.104778  0  3.974877  0
C  C162  1  0.85674659  0.88526647  0.17945506  1  -0.048967  0  -0.087671  -0.105106  0  3.974484  0
C  C163  1  0.64325297  0.70582444  0.82056826  1  -0.060101  0  -0.087528  -0.104813  0  3.974949  0
C  C164  1  0.64323069  0.17945804  0.88526864  1  -0.047774  0  -0.087613  -0.105013  0  3.973959  0
C  C165  1  0.64323160  0.11472430  0.29418250  1  -0.076621  0  -0.087651  -0.105005  0  3.974192  0
C  C166  1  0.14320694  0.70581273  0.88526008  1  -0.076337  0  -0.087664  -0.105122  0  3.974337  0
C  C167  1  0.14325128  0.17944910  0.29417601  1  -0.057917  0  -0.087501  -0.104811  0  3.973973  0
C  C168  1  0.14327141  0.11475717  0.82056204  1  -0.049774  0  -0.087491  -0.104698  0  3.974627  0
C  C169  1  0.35673107  0.29418141  0.17944695  1  -0.058337  0  -0.087527  -0.104797  0  3.973855  0
C  C170  1  0.35678525  0.82053760  0.11472727  1  -0.04824  0  -0.087594  -0.104936  0  3.974527  0
C  C171  1  0.35675244  0.88524005  0.70581223  1  -0.076951  0  -0.08757  -0.104881  0  3.974525  0
C  C172  1  0.85489270  0.24184189  0.03641819  1  0.039642  0  0.002987  0.066669  0  3.851212  0
C  C173  1  0.85490719  0.79461198  0.75817293  1  -0.014041  0  0.002949  0.066384  0  3.852074  0
C  C174  1  0.85488886  0.96357505  0.20541126  1  -0.025623  0  0.003098  0.066623  0  3.851226  0
C  C175  1  0.64510930  0.75816596  0.79460860  1  -0.014351  0  0.002936  0.066519  0  3.85214  0
C  C176  1  0.64509315  0.20541653  0.96357506  1  -0.025699  0  0.002996  0.066513  0  3.851304  0
C  C177  1  0.64508051  0.03641950  0.24183264  1  0.039971  0  0.003003  0.066541  0  3.851352  0
C  C178  1  0.14508209  0.75815759  0.96357192  1  0.039758  0  0.003125  0.06668  0  3.850712  0
C  C179  1  0.14509743  0.20540504  0.24182620  1  -0.014478  0  0.003028  0.066598  0  3.851383  0
C  C180  1  0.14513737  0.03643697  0.79459877  1  -0.02438  0  0.00314  0.06661  0  3.850718  0
C  C181  1  0.35488503  0.24182974  0.20540101  1  -0.013837  0  0.003031  0.066561  0  3.851538  0
C  C182  1  0.35490838  0.79457483  0.03641431  1  -0.02972  0  0.003128  0.066736  0  3.850824  0
C  C183  1  0.35488706  0.96356081  0.75816385  1  0.040281  0  0.003154  0.066613  0  3.85084  0
C  C184  1  0.95078306  0.25227913  0.99016925  1  -0.02721  0  -0.087285  -0.103067  0  3.977958  0
C  C185  1  0.95080164  0.73793159  0.74772378  1  -0.00637  0  -0.087262  -0.10273  0  3.978083  0
C  C186  1  0.95077884  0.00982161  0.26209718  1  -0.000161  0  -0.08723  -0.102777  0  3.978008  0
C  C187  1  0.54921718  0.74771828  0.73793189  1  -0.006179  0  -0.087138  -0.102638  0  3.978187  0
C  C188  1  0.54920674  0.26210242  0.00982138  1  0.000234  0  -0.087411  -0.103023  0  3.977814  0
C  C189  1  0.54918735  0.99017079  0.25227150  1  -0.027587  0  -0.087369  -0.103224  0  3.978247  0
C  C190  1  0.04918247  0.74770775  0.00981280  1  -0.026626  0  -0.087268  -0.102729  0  3.978335  0
C  C191  1  0.04921327  0.26209568  0.25226117  1  -0.002832  0  -0.087246  -0.10288  0  3.977462  0
C  C192  1  0.04921549  0.99020659  0.73791142  1  -0.000578  0  -0.087157  -0.102537  0  3.978021  0
C  C193  1  0.45075966  0.25226555  0.26209255  1  -0.004346  0  -0.087238  -0.102808  0  3.97732  0
C  C194  1  0.45080920  0.73788751  0.99017336  1  0.000121  0  -0.087425  -0.103189  0  3.978582  0
C  C195  1  0.45080802  0.00979170  0.74770149  1  -0.025157  0  -0.087232  -0.102794  0  3.978224  0
C  C196  1  0.04983413  0.30840842  0.02052078  1  -0.045658  0  -0.087882  -0.177587  0  3.938815  0
C  C197  1  0.04982184  0.71215937  0.69159055  1  -0.048087  0  -0.087879  -0.1777  0  3.939304  0
C  C198  1  0.04981357  0.97947238  0.28787637  1  -0.117776  0  -0.087891  -0.177872  0  3.93911  0
C  C199  1  0.45019283  0.69158741  0.71216084  1  -0.048512  0  -0.087962  -0.177819  0  3.939405  0
C  C200  1  0.45015842  0.28788111  0.97946968  1  -0.125776  0  -0.087748  -0.177557  0  3.938714  0
C  C201  1  0.45015497  0.02052799  0.30840909  1  -0.04661  0  -0.087761  -0.177422  0  3.938532  0
C  C202  1  0.95017461  0.69158544  0.97946314  1  -0.046861  0  -0.087828  -0.177835  0  3.939682  0
C  C203  1  0.95016529  0.28787576  0.30840227  1  -0.053859  0  -0.087868  -0.177741  0  3.938433  0
C  C204  1  0.95020134  0.02056215  0.71215049  1  -0.125967  0  -0.087946  -0.177891  0  3.939731  0
C  C205  1  0.54981385  0.30840479  0.28787196  1  -0.053346  0  -0.087983  -0.178067  0  3.938724  0
C  C206  1  0.54982357  0.71211317  0.02051580  1  -0.120092  0  -0.087876  -0.177621  0  3.938908  0
C  C207  1  0.54981775  0.97943327  0.69158482  1  -0.04752  0  -0.087909  -0.177713  0  3.939622  0
C  C208  1  0.15971058  0.46515500  0.20487757  1  0.355798  0  -0.065839  -0.1449  0  3.854258  0
C  C209  1  0.15970855  0.73976273  0.53484297  1  0.358503  0  -0.065603  -0.144451  0  3.853889  0
C  C210  1  0.15971081  0.79510724  0.26026012  1  0.369322  0  -0.065725  -0.144594  0  3.854069  0
C  C211  1  0.34030251  0.53484411  0.73977063  1  0.356232  0  -0.065502  -0.144425  0  3.853637  0
C  C212  1  0.34028363  0.26026484  0.79510946  1  0.369542  0  -0.065764  -0.14458  0  3.854168  0
C  C213  1  0.34029568  0.20489423  0.46516031  1  0.355031  0  -0.065772  -0.14463  0  3.854046  0
C  C214  1  0.84028787  0.53483826  0.79510007  1  0.355049  0  -0.065766  -0.144361  0  3.853869  0
C  C215  1  0.84029710  0.26026748  0.46515969  1  0.357029  0  -0.065839  -0.144907  0  3.854199  0
C  C216  1  0.84030204  0.20492771  0.73976830  1  0.369395  0  -0.065485  -0.144477  0  3.853245  0
C  C217  1  0.65970109  0.46515736  0.26025781  1  0.356764  0  -0.065717  -0.144661  0  3.853867  0
C  C218  1  0.65970968  0.73972298  0.20488148  1  0.370338  0  -0.065768  -0.144753  0  3.854169  0
C  C219  1  0.65971305  0.79506842  0.53483613  1  0.354794  0  -0.065582  -0.144354  0  3.853284  0
C  C220  1  0.28918499  0.51339408  0.22315481  1  1.61448  0  0.214026  0.606784  0  4.172389  0
C  C221  1  0.28916250  0.70978738  0.48659286  1  1.617069  0  0.21403  0.606547  0  4.171938  0
C  C222  1  0.28917902  0.77683000  0.29021430  1  1.60864  0  0.214063  0.606642  0  4.171914  0
C  C223  1  0.21082830  0.48660588  0.70979573  1  1.616882  0  0.213947  0.606604  0  4.171619  0
C  C224  1  0.21082772  0.29022622  0.77682636  1  1.608717  0  0.214127  0.606758  0  4.172  0
C  C225  1  0.21082718  0.22317627  0.51339515  1  1.620927  0  0.21393  0.606471  0  4.172038  0
C  C226  1  0.71082169  0.48659706  0.77682298  1  1.620752  0  0.2141  0.606648  0  4.172046  0
C  C227  1  0.71083492  0.29022172  0.51339550  1  1.616201  0  0.214075  0.606852  0  4.171933  0
C  C228  1  0.71083280  0.22319464  0.70979983  1  1.609085  0  0.213879  0.606612  0  4.171618  0
C  C229  1  0.78916912  0.51338900  0.29021078  1  1.616055  0  0.214046  0.606799  0  4.171708  0
C  C230  1  0.78918616  0.70976777  0.22315939  1  1.60897  0  0.214041  0.606839  0  4.17181  0
C  C231  1  0.78917023  0.77680126  0.48659231  1  1.623592  0  0.21399  0.606567  0  4.171963  0
C  C232  1  0.74999366  0.17726180  0.99999840  1  0.054209  0  -0.00587  0.15562  0  3.840694  0
C  C233  1  0.75000601  0.82273906  0.82274203  1  0.051106  0  -0.005799  0.155822  0  3.840447  0
C  C234  1  0.74998729  0.99999702  0.17725516  1  0.054369  0  -0.005778  0.155811  0  3.840437  0
C  C235  1  0.24999820  0.82272424  0.99999428  1  0.058429  0  -0.005899  0.155686  0  3.840546  0
C  C236  1  0.24999244  0.17723895  0.17723512  1  0.050941  0  -0.006038  0.155539  0  3.840272  0
C  C237  1  0.25000862  0.99999909  0.82274651  1  0.053851  0  -0.005948  0.155557  0  3.841022  0
C  C238  1  0.82007105  0.10299038  0.94146374  1  -0.076869  0  -0.242628  -0.418651  0  3.917031  0
C  C239  1  0.82009363  0.83848672  0.89701368  1  -0.068734  0  -0.242738  -0.418761  0  3.917282  0
C  C240  1  0.82006923  0.05853461  0.16151838  1  -0.077668  0  -0.242763  -0.418863  0  3.916972  0
C  C241  1  0.67991288  0.89700967  0.83848986  1  -0.069095  0  -0.242739  -0.41884  0  3.917338  0
C  C242  1  0.67991553  0.16152837  0.05853740  1  -0.09556  0  -0.242585  -0.418511  0  3.917162  0
C  C243  1  0.67991763  0.94145950  0.10298190  1  -0.076071  0  -0.24261  -0.41852  0  3.916888  0
C  C244  1  0.17993152  0.89699675  0.05852593  1  -0.083295  0  -0.242752  -0.418907  0  3.917268  0
C  C245  1  0.17990791  0.16150936  0.10296507  1  -0.068347  0  -0.242548  -0.418648  0  3.916789  0
C  C246  1  0.17989526  0.94147454  0.83848764  1  -0.095256  0  -0.242672  -0.418699  0  3.916985  0
C  C247  1  0.32007733  0.10296893  0.16150833  1  -0.068455  0  -0.242508  -0.418513  0  3.916637  0
C  C248  1  0.32007160  0.83847294  0.94146760  1  -0.095704  0  -0.242592  -0.418532  0  3.917169  0
C  C249  1  0.32011374  0.05852670  0.89700968  1  -0.084593  0  -0.242591  -0.418562  0  3.91682  0
O  O250  1  0.15860608  0.40841632  0.12559660  1  -1.040112  0  -0.14554  -0.130805  0  2.561861  0
O  O251  1  0.15858780  0.71723094  0.59158584  1  -1.040968  0  -0.145576  -0.130928  0  2.562021  0
O  O252  1  0.15858269  0.87439191  0.28280959  1  -1.043655  0  -0.145443  -0.130658  0  2.561529  0
O  O253  1  0.34141901  0.59158666  0.71723798  1  -1.041675  0  -0.145625  -0.130947  0  2.561963  0
O  O254  1  0.34139797  0.28281294  0.87439171  1  -1.043521  0  -0.145568  -0.130837  0  2.561763  0
O  O255  1  0.34140895  0.12560972  0.40842819  1  -1.040446  0  -0.145543  -0.130859  0  2.561566  0
O  O256  1  0.84141809  0.59156549  0.87438265  1  -1.040494  0  -0.145465  -0.130788  0  2.561694  0
O  O257  1  0.84141991  0.28281846  0.40842123  1  -1.03923  0  -0.145544  -0.13081  0  2.561297  0
O  O258  1  0.84143428  0.12564453  0.71723111  1  -1.043299  0  -0.14547  -0.130677  0  2.562044  0
O  O259  1  0.65857017  0.40841874  0.28280916  1  -1.039127  0  -0.14551  -0.130714  0  2.561296  0
O  O260  1  0.65858401  0.71717276  0.12559939  1  -1.043676  0  -0.145498  -0.130743  0  2.561844  0
O  O261  1  0.65857817  0.87435117  0.59158182  1  -1.039919  0  -0.14547  -0.130847  0  2.562093  0
O  O262  1  0.29035657  0.57052568  0.29097855  1  -1.185014  0  -0.312791  -0.563151  0  2.286115  0
O  O263  1  0.29036337  0.72046461  0.42946674  1  -1.179214  0  -0.312767  -0.562893  0  2.286881  0
O  O264  1  0.29037089  0.70900778  0.27952712  1  -1.178895  0  -0.312841  -0.562964  0  2.286075  0
O  O265  1  0.20964407  0.42946617  0.72047297  1  -1.17852  0  -0.312867  -0.563039  0  2.286018  0
O  O266  1  0.20963925  0.27953100  0.70900909  1  -1.179217  0  -0.31285  -0.562982  0  2.286306  0
O  O267  1  0.20964070  0.29099618  0.57053154  1  -1.185401  0  -0.312855  -0.563039  0  2.285942  0
O  O268  1  0.70962542  0.42947250  0.70900400  1  -1.185549  0  -0.312855  -0.562987  0  2.286232  0
O  O269  1  0.70964331  0.27953547  0.57052965  1  -1.179183  0  -0.31289  -0.563098  0  2.286088  0
O  O270  1  0.70964505  0.29100809  0.72047710  1  -1.178762  0  -0.312838  -0.563012  0  2.28629  0
O  O271  1  0.79036363  0.57052156  0.27952299  1  -1.178954  0  -0.312918  -0.563155  0  2.286063  0
O  O272  1  0.79037463  0.72046161  0.29098494  1  -1.178804  0  -0.312791  -0.563066  0  2.286005  0
O  O273  1  0.79037112  0.70899622  0.42946171  1  -1.18604  0  -0.312735  -0.562858  0  2.286542  0
O  O274  1  0.38184758  0.49424952  0.17388212  1  -1.162618  0  -0.314728  -0.532877  0  2.153705  0
O  O275  1  0.38184540  0.67963845  0.50574722  1  -1.169281  0  -0.314773  -0.53302  0  2.152298  0
O  O276  1  0.38185247  0.82611256  0.32034600  1  -1.165505  0  -0.314756  -0.532981  0  2.153137  0
O  O277  1  0.11816396  0.50575448  0.67966262  1  -1.169701  0  -0.314559  -0.532832  0  2.153303  0
O  O278  1  0.11815910  0.32037308  0.82611677  1  -1.165346  0  -0.31479  -0.533044  0  2.153058  0
O  O279  1  0.11815046  0.17389615  0.49424368  1  -1.167693  0  -0.314617  -0.532802  0  2.153337  0
O  O280  1  0.61815190  0.50573970  0.82611136  1  -1.167176  0  -0.314712  -0.532996  0  2.153282  0
O  O281  1  0.61816745  0.32035446  0.49424256  1  -1.168247  0  -0.314678  -0.53301  0  2.15314  0
O  O282  1  0.61816244  0.17390910  0.67966914  1  -1.165909  0  -0.314521  -0.532861  0  2.152938  0
O  O283  1  0.88183552  0.49423461  0.32034378  1  -1.168335  0  -0.314642  -0.532982  0  2.152994  0
O  O284  1  0.88185581  0.67963688  0.17388154  1  -1.166  0  -0.314764  -0.533015  0  2.153267  0
O  O285  1  0.88184696  0.82609966  0.50574616  1  -1.168194  0  -0.314657  -0.532935  0  2.152675  0
O  O286  1  0.55121083  0.60943408  0.23399367  1  -1.273716  0  -0.580989  -0.763617  0  2.137075  0
O  O287  1  0.55119192  0.62455629  0.39055708  1  -1.271059  0  -0.581019  -0.763491  0  2.136982  0
O  O288  1  0.55121663  0.76600270  0.37543014  1  -1.285568  0  -0.581004  -0.763626  0  2.13697  0
O  O289  1  0.94879997  0.39056842  0.62456450  1  -1.270807  0  -0.580982  -0.763426  0  2.137013  0
O  O290  1  0.94879636  0.37544637  0.76600740  1  -1.286655  0  -0.580952  -0.763448  0  2.137102  0
O  O291  1  0.94879718  0.23400013  0.60943671  1  -1.273481  0  -0.58103  -0.763569  0  2.137096  0
O  O292  1  0.44879482  0.39055764  0.76600912  1  -1.273689  0  -0.581023  -0.763634  0  2.136908  0
O  O293  1  0.44879418  0.37544416  0.60943796  1  -1.270903  0  -0.581009  -0.763448  0  2.136996  0
O  O294  1  0.44880445  0.23399922  0.62456638  1  -1.285657  0  -0.580983  -0.763519  0  2.136957  0
O  O295  1  0.05120774  0.60943534  0.37543215  1  -1.270944  0  -0.581026  -0.763605  0  2.136957  0
O  O296  1  0.05121752  0.62456100  0.23398662  1  -1.28574  0  -0.580972  -0.763611  0  2.137021  0
O  O297  1  0.05120024  0.76600613  0.39055449  1  -1.273492  0  -0.581024  -0.763611  0  2.136852  0
