# generated using pymatgen
data_CdH7C10IN6
_symmetry_space_group_name_H-M   'P 1'
_cell_length_a   7.46881700
_cell_length_b   9.87002682
_cell_length_c   17.05865156
_cell_angle_alpha   106.59819274
_cell_angle_beta   90.00015928
_cell_angle_gamma   89.99972616
_symmetry_Int_Tables_number   1
_chemical_formula_structural   CdH7C10IN6
_chemical_formula_sum   'Cd4 H28 C40 I4 N24'
_cell_volume   1205.12099269
_cell_formula_units_Z   4
loop_
 _symmetry_equiv_pos_site_id
 _symmetry_equiv_pos_as_xyz
  1  'x, y, z'
loop_
 _atom_site_type_symbol
 _atom_site_label
 _atom_site_symmetry_multiplicity
 _atom_site_fract_x
 _atom_site_fract_y
 _atom_site_fract_z
 _atom_site_occupancy
 _atom_site_pbe_bader_spin_density
 _atom_site_pbe_cm5_charge
 _atom_site_pbe_ddec_charge
 _atom_site_pbe_ddec_spin_density
 _atom_site_pbe_ddec_sum_bond_order
 _atom_site_pbe_magmom
Cd  Cd0  1  0.18693435  0.15220798  0.08424181  1  0  0.661403  0.674934  0  2.408613  0
Cd  Cd1  1  0.68692967  0.34778163  0.41575502  1  0  0.661426  0.674933  0  2.408673  0
Cd  Cd2  1  0.81307154  0.84778623  0.91575740  1  0  0.661423  0.67493  0  2.408726  0
Cd  Cd3  1  0.31307488  0.65221469  0.58424395  1  0  0.661434  0.674977  0  2.408641  0
H  H4  1  0.95489742  0.47612388  0.62220828  1  0  0.079087  0.090942  0  1.08384  0
H  H5  1  0.45490486  0.02388194  0.87779321  1  0  0.079079  0.09093  0  1.083838  0
H  H6  1  0.04510312  0.52386399  0.37778460  1  0  0.079061  0.090918  0  1.083969  0
H  H7  1  0.54509969  0.97613236  0.12220991  1  0  0.0791  0.090955  0  1.083858  0
H  H8  1  0.98330836  0.23198736  0.63386195  1  0  0.099375  0.100077  0  1.011542  0
H  H9  1  0.48331283  0.26801414  0.86613886  1  0  0.099391  0.100104  0  1.011547  0
H  H10  1  0.01670021  0.76800368  0.36613615  1  0  0.099351  0.10003  0  1.011513  0
H  H11  1  0.51669172  0.73199805  0.13386098  1  0  0.099376  0.100035  0  1.011553  0
H  H12  1  0.07299877  0.19000268  0.76510223  1  0  0.106997  0.112302  0  1.051686  0
H  H13  1  0.57299848  0.30999488  0.73489686  1  0  0.107031  0.112327  0  1.05168  0
H  H14  1  0.92700713  0.80999153  0.23489463  1  0  0.106945  0.112202  0  1.051773  0
H  H15  1  0.42700607  0.69000674  0.26510240  1  0  0.106961  0.112211  0  1.051738  0
H  H16  1  0.11459866  0.64117686  0.87421050  1  0  0.088329  0.103917  0  1.080916  0
H  H17  1  0.61459065  0.85881942  0.62578634  1  0  0.088313  0.103909  0  1.080889  0
H  H18  1  0.88540589  0.35881629  0.12578267  1  0  0.088305  0.103869  0  1.080998  0
H  H19  1  0.38540185  0.14118325  0.37421778  1  0  0.088304  0.103888  0  1.080971  0
H  H20  1  0.02834822  0.19451154  0.90097849  1  0  0.127639  0.09624  0  1.048838  0
H  H21  1  0.52833904  0.30549674  0.59902466  1  0  0.127619  0.0963  0  1.048837  0
H  H22  1  0.97165767  0.80548162  0.09902054  1  0  0.127635  0.09622  0  1.048911  0
H  H23  1  0.47165615  0.69451122  0.40097740  1  0  0.127626  0.09622  0  1.048853  0
H  H24  1  0.31134110  0.58350179  0.95245419  1  0  0.111361  0.123489  0  1.05005  0
H  H25  1  0.81132685  0.91650019  0.54755144  1  0  0.11132  0.123491  0  1.049997  0
H  H26  1  0.68865943  0.41649559  0.04754789  1  0  0.111339  0.123459  0  1.050063  0
H  H27  1  0.18866163  0.08350459  0.45245069  1  0  0.111335  0.123455  0  1.050088  0
H  H28  1  0.34958695  0.46807800  0.08259308  1  0  0.112488  0.100682  0  1.071758  0
H  H29  1  0.84957492  0.03191743  0.41741310  1  0  0.112481  0.100727  0  1.071792  0
H  H30  1  0.65040689  0.53192044  0.91740800  1  0  0.112507  0.100757  0  1.071735  0
H  H31  1  0.15041759  0.96808313  0.58259184  1  0  0.112453  0.100649  0  1.071713  0
C  C32  1  0.02990450  0.71968821  0.74133736  1  0  0.216579  0.25887  0  4.006302  0
C  C33  1  0.52990323  0.78031152  0.75866346  1  0  0.21656  0.258818  0  4.006457  0
C  C34  1  0.97008934  0.28029860  0.25865828  1  0  0.216644  0.258753  0  4.00642  0
C  C35  1  0.47009061  0.21969855  0.24134129  1  0  0.216611  0.258795  0  4.006536  0
C  C36  1  0.03468084  0.57457667  0.74735860  1  0  -0.007862  0.041657  0  4.018315  0
C  C37  1  0.53467861  0.92542200  0.75264205  1  0  -0.007829  0.041687  0  4.018394  0
C  C38  1  0.96533041  0.42541120  0.25263428  1  0  -0.007876  0.041701  0  4.018331  0
C  C39  1  0.46532193  0.07458913  0.24736171  1  0  -0.007858  0.041697  0  4.018494  0
C  C40  1  0.99650934  0.45863942  0.67977023  1  0  -0.094536  -0.123239  0  3.962507  0
C  C41  1  0.49651897  0.04135569  0.82023012  1  0  -0.094538  -0.123221  0  3.962634  0
C  C42  1  0.00349655  0.54135162  0.32022376  1  0  -0.09446  -0.12318  0  3.962694  0
C  C43  1  0.50349094  0.95864910  0.17977142  1  0  -0.094534  -0.123297  0  3.962549  0
C  C44  1  0.00997204  0.32182448  0.68704532  1  0  -0.085527  -0.04334  0  3.979803  0
C  C45  1  0.50997178  0.17817540  0.81295760  1  0  -0.0855  -0.04329  0  3.979768  0
C  C46  1  0.99004188  0.67816444  0.31295126  1  0  -0.085496  -0.043253  0  3.979595  0
C  C47  1  0.49003411  0.82183362  0.18704581  1  0  -0.085511  -0.043221  0  3.979555  0
C  C48  1  0.06037258  0.29762289  0.76065108  1  0  -0.084624  -0.156413  0  3.93202  0
C  C49  1  0.56037435  0.20237789  0.73935380  1  0  -0.084705  -0.15651  0  3.932127  0
C  C50  1  0.93963197  0.70237238  0.23934478  1  0  -0.084595  -0.156356  0  3.931911  0
C  C51  1  0.43963154  0.79763218  0.26065214  1  0  -0.084607  -0.156367  0  3.931987  0
C  C52  1  0.09611169  0.41398777  0.82801529  1  0  0.096644  0.182595  0  3.992085  0
C  C53  1  0.59611644  0.08601077  0.67199220  1  0  0.096651  0.182677  0  3.992259  0
C  C54  1  0.90389420  0.58600327  0.17198516  1  0  0.096554  0.182503  0  3.992124  0
C  C55  1  0.40388945  0.91399401  0.32801286  1  0  0.096615  0.182674  0  3.992043  0
C  C56  1  0.08296725  0.55144805  0.82181356  1  0  -0.093178  -0.199657  0  3.932265  0
C  C57  1  0.58296304  0.94855257  0.67818630  1  0  -0.093154  -0.19968  0  3.932324  0
C  C58  1  0.91703998  0.44854300  0.17818219  1  0  -0.093014  -0.19949  0  3.932265  0
C  C59  1  0.41703616  0.05145644  0.32181535  1  0  -0.093052  -0.199591  0  3.932147  0
C  C60  1  0.11171065  0.28298324  0.93312266  1  0  0.142574  0.102443  0  3.888741  0
C  C61  1  0.61169913  0.21702265  0.56688371  1  0  0.142615  0.102337  0  3.888668  0
C  C62  1  0.88829926  0.71701203  0.06687261  1  0  0.142624  0.102462  0  3.888761  0
C  C63  1  0.38829739  0.78298848  0.43312181  1  0  0.14271  0.102581  0  3.888771  0
C  C64  1  0.25832769  0.48731083  0.96181153  1  0  -0.000657  -0.093953  0  3.89698  0
C  C65  1  0.75830389  0.01269140  0.53819031  1  0  -0.000681  -0.094097  0  3.897442  0
C  C66  1  0.74167954  0.51268655  0.03818703  1  0  -0.000631  -0.09397  0  3.89711  0
C  C67  1  0.24167388  0.98731233  0.46181106  1  0  -0.000669  -0.093974  0  3.897157  0
C  C68  1  0.27792627  0.42922063  0.02518294  1  0  -0.007329  -0.033093  0  3.990462  0
C  C69  1  0.77791169  0.07077715  0.47481886  1  0  -0.007332  -0.033096  0  3.990479  0
C  C70  1  0.72208096  0.57077147  0.97481299  1  0  -0.007378  -0.033174  0  3.990528  0
C  C71  1  0.22207813  0.92922552  0.52518116  1  0  -0.007262  -0.032978  0  3.990472  0
I  I72  1  0.25464451  0.88708807  0.98366645  1  0  -0.194108  -0.414895  0  1.577615  0
I  I73  1  0.75464002  0.61290141  0.51633294  1  0  -0.194118  -0.4149  0  1.577628  0
I  I74  1  0.74534799  0.11290403  0.01633417  1  0  -0.194109  -0.414909  0  1.577622  0
I  I75  1  0.24535248  0.38709492  0.48366778  1  0  -0.19411  -0.414897  0  1.577624  0
N  N76  1  0.97123949  0.83340773  0.80013631  1  0  -0.248213  -0.254146  0  3.490997  0
N  N77  1  0.47123681  0.66659267  0.69986632  1  0  -0.248172  -0.254086  0  3.491053  0
N  N78  1  0.02875971  0.16657909  0.19986109  1  0  -0.248177  -0.254082  0  3.490979  0
N  N79  1  0.52875837  0.33342057  0.30013780  1  0  -0.248172  -0.254081  0  3.49099  0
N  N80  1  0.99599530  0.94712768  0.77223509  1  0  -0.097818  -0.078771  0  3.256724  0
N  N81  1  0.49599888  0.55287264  0.72776638  1  0  -0.097851  -0.078782  0  3.256829  0
N  N82  1  0.00400256  0.05286124  0.22776324  1  0  -0.098002  -0.07895  0  3.256767  0
N  N83  1  0.50399764  0.44713849  0.27223563  1  0  -0.097977  -0.078943  0  3.256896  0
N  N84  1  0.06783080  0.90488042  0.69926516  1  0  -0.096799  -0.074409  0  3.248223  0
N  N85  1  0.56783500  0.59512025  0.80073586  1  0  -0.096865  -0.074492  0  3.248339  0
N  N86  1  0.93216438  0.09511063  0.30073293  1  0  -0.096692  -0.074266  0  3.24815  0
N  N87  1  0.43216018  0.40488982  0.19926655  1  0  -0.096718  -0.074295  0  3.248325  0
N  N88  1  0.09047332  0.76269117  0.67799714  1  0  -0.245604  -0.256818  0  3.404869  0
N  N89  1  0.59047274  0.73731154  0.82200425  1  0  -0.245559  -0.256749  0  3.40483  0
N  N90  1  0.90952186  0.23729881  0.32199961  1  0  -0.245666  -0.256829  0  3.404826  0
N  N91  1  0.40951709  0.26270065  0.17799969  1  0  -0.245606  -0.256765  0  3.404752  0
N  N92  1  0.15207268  0.39425797  0.90388042  1  0  -0.220957  0.013832  0  3.774653  0
N  N93  1  0.65206474  0.10574673  0.59612522  1  0  -0.220945  0.013914  0  3.774979  0
N  N94  1  0.84793589  0.60573730  0.09611779  1  0  -0.220993  0.013911  0  3.774599  0
N  N95  1  0.34793312  0.89426228  0.40387937  1  0  -0.221143  0.013629  0  3.774804  0
N  N96  1  0.18576476  0.30223968  0.00655466  1  0  -0.365279  -0.273267  0  3.553299  0
N  N97  1  0.68574816  0.19776368  0.49344971  1  0  -0.365249  -0.273229  0  3.553097  0
N  N98  1  0.81423979  0.69775664  0.99344255  1  0  -0.365287  -0.273278  0  3.553349  0
N  N99  1  0.31424033  0.80224004  0.50655341  1  0  -0.365288  -0.273337  0  3.55338  0
