# generated using pymatgen
data_CoH22C32N4O5
_symmetry_space_group_name_H-M   'P 1'
_cell_length_a   10.56195729
_cell_length_b   10.96047481
_cell_length_c   13.15871425
_cell_angle_alpha   113.45857438
_cell_angle_beta   91.00519394
_cell_angle_gamma   96.86040125
_symmetry_Int_Tables_number   1
_chemical_formula_structural   CoH22C32N4O5
_chemical_formula_sum   'Co2 H44 C64 N8 O10'
_cell_volume   1383.84890575
_cell_formula_units_Z   2
loop_
 _symmetry_equiv_pos_site_id
 _symmetry_equiv_pos_as_xyz
  1  'x, y, z'
loop_
 _atom_site_type_symbol
 _atom_site_label
 _atom_site_symmetry_multiplicity
 _atom_site_fract_x
 _atom_site_fract_y
 _atom_site_fract_z
 _atom_site_occupancy
 _atom_site_hle17_ddec_charge
 _atom_site_hle17_ddec_spin_density
 _atom_site_hle17_ddec_sum_bond_order
 _atom_site_hle17_magmom
 _atom_site_hse06_10hf_ddec_charge
 _atom_site_hse06_10hf_ddec_spin_density
 _atom_site_hse06_10hf_ddec_sum_bond_order
 _atom_site_hse06_10hf_magmom
 _atom_site_hse06_ddec_charge
 _atom_site_hse06_ddec_spin_density
 _atom_site_hse06_ddec_sum_bond_order
 _atom_site_hse06_magmom
 _atom_site_pbe_cm5_charge
 _atom_site_pbe_ddec_charge
 _atom_site_pbe_ddec_spin_density
 _atom_site_pbe_ddec_sum_bond_order
 _atom_site_pbe_magmom
Co  Co0  1  0.41565328  0.17298807  0.25942022  1  0.954275  2.827666  2.036497  2.533  0.892959  2.824615  2.494992  2.587  0.983767  2.869788  2.407034  2.675  0.682273  0.822993  2.781464  2.55975  2.504
Co  Co1  1  0.58435217  0.82701572  0.74058138  1  0.954251  2.827649  2.036446  2.533  0.89294  2.824626  2.494954  2.587  0.983739  2.869794  2.407  2.675  0.68228  0.822964  2.781472  2.55973  2.504
H  H2  1  0.65262329  0.14564944  0.11372997  1  0.116975  -4.7e-05  0.940263  0.001  0.127817  2.3e-05  0.9948  0.001  0.130933  -3.1e-05  0.992948  0.0  0.123933  0.12547  7.8e-05  0.996346  0.001
H  H3  1  0.34737356  0.85434629  0.88626502  1  0.116982  -4.6e-05  0.940201  0.001  0.127832  2.3e-05  0.994743  0.001  0.130948  -3.2e-05  0.99289  0.0  0.12393  0.125487  7.9e-05  0.996288  0.001
H  H4  1  0.65228137  0.21465647  0.93129160  1  0.107633  0.000172  1.00947  0.0  0.115279  0.000166  1.075408  0.0  0.117121  9.2e-05  1.075915  0.0  0.118071  0.113976  0.000245  1.075171  0.001
H  H5  1  0.34771627  0.78533827  0.06870536  1  0.107695  0.000175  1.009422  0.0  0.115307  0.000166  1.075399  0.0  0.11715  9.2e-05  1.075904  0.0  0.11809  0.114004  0.000245  1.07516  0.001
H  H6  1  0.28744391  0.23855770  0.06170190  1  0.103523  1.3e-05  0.937567  0.001  0.11185  6.8e-05  1.002297  0.0  0.114384  4.3e-05  0.998672  0.0  0.13838  0.109836  9.9e-05  1.005252  0.0
H  H7  1  0.71255426  0.76143404  0.93829562  1  0.103489  1.6e-05  0.937637  0.001  0.11182  6.8e-05  1.002354  0.0  0.114353  4.3e-05  0.998731  0.0  0.138375  0.109807  9.9e-05  1.005308  0.0
H  H8  1  0.52090756  0.15037926  0.76335847  1  0.114456  -0.000251  0.945125  0.0  0.124807  -0.000269  1.006038  0.0  0.127963  -0.000266  1.004209  0.0  0.110538  0.122281  -0.00025  1.00772  0.0
H  H9  1  0.47909293  0.84961546  0.23663704  1  0.114441  -0.000257  0.945154  0.0  0.124762  -0.000269  1.006093  0.0  0.127921  -0.000266  1.004259  0.0  0.110528  0.122237  -0.000247  1.007776  0.0
H  H10  1  0.45746227  0.23402794  0.62040799  1  0.139895  1.2e-05  0.96548  0.0  0.148112  -1.2e-05  1.02667  0.0  0.152358  -2.5e-05  1.023875  0.0  0.110352  0.144857  6e-06  1.028929  0.0
H  H11  1  0.54253871  0.76597084  0.37959340  1  0.139899  1.6e-05  0.965399  0.0  0.148127  -1.2e-05  1.026585  0.0  0.152385  -2.5e-05  1.023774  0.0  0.110356  0.144869  7e-06  1.028848  0.0
H  H12  1  0.24321370  0.51181402  0.86073632  1  0.109551  0.0  0.956948  0.0  0.11874  -1.7e-05  1.018946  0.0  0.120965  -1.3e-05  1.01967  0.0  0.104613  0.117169  -2.4e-05  1.018425  0.0
H  H13  1  0.75678503  0.48817469  0.13925871  1  0.109528  -4e-06  0.957098  0.0  0.118761  -1.7e-05  1.019025  0.0  0.120991  -1.2e-05  1.019738  0.0  0.10465  0.117193  -2.5e-05  1.018501  0.0
H  H14  1  0.31042009  0.43278138  0.00343017  1  0.099046  -2.9e-05  0.9519  0.0  0.1093  -2.1e-05  1.01484  0.0  0.111833  -1.4e-05  1.013992  0.0  0.104218  0.107547  -3e-05  1.015423  0.0
H  H15  1  0.68957689  0.56720834  0.99656438  1  0.098999  -2.7e-05  0.951894  0.0  0.109319  -2.1e-05  1.014771  0.0  0.111848  -1.4e-05  1.013923  0.0  0.104226  0.107569  -3e-05  1.015352  0.0
H  H16  1  0.85503756  0.75705927  0.71018415  1  0.102758  7e-05  0.975741  0.001  0.110311  0.000141  1.040699  0.0  0.113438  0.000101  1.036573  0.0  0.135188  0.10785  0.000165  1.043864  0.001
H  H17  1  0.14496813  0.24293952  0.28981888  1  0.102812  7.1e-05  0.975665  0.001  0.110338  0.000141  1.040657  0.0  0.113464  0.000101  1.036531  0.0  0.135215  0.107876  0.000165  1.043823  0.001
H  H18  1  0.50824259  0.49533634  0.59743207  1  0.117088  9.8e-05  0.970718  0.001  0.12005  0.00025  1.037399  0.001  0.123585  0.000164  1.034945  0.0  0.121393  0.117428  0.000352  1.039292  0.001
H  H19  1  0.49175860  0.50467040  0.40256357  1  0.117052  9.9e-05  0.970711  0.001  0.120017  0.00025  1.037407  0.001  0.123555  0.000163  1.03495  0.0  0.121364  0.117396  0.000353  1.039301  0.001
H  H20  1  0.70622517  0.34278213  0.55801690  1  0.112197  0.000145  0.989061  0.0  0.12005  0.000213  1.05386  0.0  0.122259  0.000147  1.053682  0.0  0.120983  0.118376  0.000301  1.05413  0.0
H  H21  1  0.29377223  0.65721760  0.44197789  1  0.112195  0.000156  0.989084  0.0  0.120055  0.000213  1.05387  0.0  0.122263  0.000147  1.053693  0.0  0.120988  0.118381  0.000301  1.05414  0.0
H  H22  1  0.88729884  0.30192932  0.60948921  1  0.098988  1.9e-05  0.977125  0.0  0.108525  2.4e-05  1.041981  0.0  0.110253  1.9e-05  1.043032  0.0  0.10351  0.107008  3e-05  1.041774  0.0
H  H23  1  0.11270175  0.69806644  0.39051043  1  0.098927  1.6e-05  0.977096  0.0  0.108494  2.4e-05  1.041929  0.0  0.110222  2e-05  1.042981  0.0  0.103506  0.106978  3e-05  1.04172  0.0
H  H24  1  0.10822137  0.25336200  0.62283948  1  0.115694  6e-06  0.957575  0.0  0.12555  1.1e-05  1.016645  0.0  0.127834  8e-06  1.01722  0.0  0.107918  0.124072  1.2e-05  1.016024  0.0
H  H25  1  0.89177911  0.74663275  0.37715831  1  0.11569  -1e-05  0.957518  0.0  0.125552  1.1e-05  1.016586  0.0  0.127835  8e-06  1.017163  0.0  0.107897  0.124077  1.2e-05  1.015965  0.0
H  H26  1  0.25738434  0.65676156  0.66961208  1  0.12249  -0.000143  0.956294  0.0  0.129458  -0.000103  1.022589  0.0  0.133092  -0.000139  1.020743  0.0  0.10788  0.12646  -5.4e-05  1.02414  0.0
H  H27  1  0.74261424  0.34323319  0.33038567  1  0.122536  -0.000134  0.95631  0.0  0.12951  -0.000103  1.02259  0.0  0.133144  -0.000139  1.020744  0.0  0.107883  0.126515  -5.4e-05  1.024137  0.0
H  H28  1  0.03683435  0.70566209  0.65212096  1  0.097955  -2e-05  0.973301  0.0  0.10804  -2e-05  1.037287  0.0  0.10999  -1.3e-05  1.037384  0.0  0.104563  0.106659  -3.4e-05  1.037202  0.0
H  H29  1  0.96316501  0.29433167  0.34787953  1  0.097942  -2e-05  0.97328  0.0  0.108054  -2.1e-05  1.037244  0.0  0.110004  -1.3e-05  1.037342  0.0  0.104587  0.106671  -3.4e-05  1.03716  0.0
H  H30  1  0.63511490  0.06096127  0.56012908  1  0.111858  -3.2e-05  0.948662  0.0  0.121086  -7e-05  1.009732  0.0  0.124683  -8.1e-05  1.007336  0.0  0.107486  0.118412  -5.1e-05  1.011437  0.0
H  H31  1  0.36487883  0.93904058  0.43987924  1  0.11187  -3.4e-05  0.948567  0.0  0.121092  -7e-05  1.009632  0.0  0.12469  -8.1e-05  1.007237  0.0  0.10751  0.118407  -5.2e-05  1.011353  0.0
H  H32  1  0.83036054  0.99939584  0.61600998  1  0.095631  -7.8e-05  0.98938  0.0  0.105769  -0.000109  1.052426  0.0  0.108661  -0.000137  1.051542  0.0  0.099857  0.103675  -5e-05  1.053124  0.0
H  H33  1  0.16962802  0.00060303  0.38400105  1  0.095676  -7.7e-05  0.989296  0.0  0.105792  -0.000109  1.052374  0.0  0.10869  -0.000137  1.051488  0.0  0.09987  0.103696  -5e-05  1.053076  0.0
H  H34  1  0.00788127  0.03049904  0.33151783  1  0.089732  -6.2e-05  0.976458  0.0  0.101012  -5.8e-05  1.037399  0.0  0.103456  -4.7e-05  1.036861  0.0  0.098655  0.09916  -4.9e-05  1.037728  0.0
H  H35  1  0.99211845  0.96950589  0.66850075  1  0.089721  -6e-05  0.976406  0.0  0.100904  -5.8e-05  1.037472  0.0  0.103344  -4.7e-05  1.036932  0.0  0.098672  0.099055  -4.9e-05  1.037794  0.0
H  H36  1  0.80789507  0.08838324  0.27574073  1  0.100646  0.000137  0.938582  0.0  0.114573  8.3e-05  0.991389  0.0  0.118229  2.2e-05  0.98881  0.0  0.106011  0.111823  0.000151  0.993377  0.0
H  H37  1  0.19210755  0.91162163  0.72427181  1  0.100645  0.000142  0.938472  0.0  0.114623  8.3e-05  0.991243  0.0  0.118251  2.2e-05  0.988697  0.0  0.106051  0.111872  0.000151  0.99323  0.0
H  H38  1  0.22903621  0.79869794  0.24030708  1  0.095946  0.000155  0.963767  0.0  0.104978  8.4e-05  1.028775  0.0  0.108076  2.6e-05  1.026799  0.0  0.102624  0.102639  0.000153  1.030314  0.0
H  H39  1  0.77096263  0.20131987  0.75969363  1  0.095917  0.000154  0.963764  0.0  0.104966  8.5e-05  1.028751  0.0  0.108062  2.6e-05  1.026778  0.0  0.102574  0.102633  0.000153  1.030282  0.0
H  H40  1  0.13782673  0.56109160  0.16052430  1  0.083315  -1.2e-05  0.975481  0.0  0.09477  2e-06  1.036289  0.0  0.097792  1e-06  1.034846  0.0  0.095833  0.092485  5e-06  1.037645  0.0
H  H41  1  0.86218009  0.43892219  0.83947680  1  0.08323  -7e-06  0.975496  0.0  0.094692  2e-06  1.036306  0.0  0.097714  1e-06  1.034875  0.0  0.095816  0.092446  6e-06  1.03762  0.0
H  H42  1  0.92830811  0.62586766  0.90511165  1  0.085005  3.7e-05  0.968637  0.0  0.09646  4.1e-05  1.029255  0.0  0.099259  2.4e-05  1.028085  0.0  0.097159  0.094492  6.5e-05  1.030106  0.0
H  H43  1  0.07170393  0.37413504  0.09488062  1  0.084991  3.6e-05  0.968728  0.0  0.096494  4.1e-05  1.029289  0.0  0.099294  2.4e-05  1.028117  0.0  0.097157  0.094528  6.5e-05  1.030135  0.0
H  H44  1  0.01530662  0.86525241  0.99030859  1  0.115249  -3.8e-05  0.945419  0.0  0.121897  -6.1e-05  1.00919  0.0  0.12646  -5.6e-05  1.004955  0.0  0.10543  0.118781  -6.5e-05  1.01183  0.0
H  H45  1  0.98469105  0.13475634  0.00968687  1  0.115171  -3.8e-05  0.9454  0.0  0.121841  -6.1e-05  1.009155  0.0  0.126394  -5.6e-05  1.004933  0.0  0.105388  0.118724  -6.4e-05  1.011798  0.0
C  C46  1  0.57757925  0.17614986  0.07573528  1  0.012331  -0.003613  3.720316  -0.002  -0.018367  0.001569  3.987176  0.002  -0.015811  0.001121  4.007451  0.002  0.002135  -0.020451  0.002039  3.97386  0.003
C  C47  1  0.42241931  0.82384490  0.92426399  1  0.012353  -0.0036  3.720454  -0.002  -0.018352  0.001569  3.987297  0.002  -0.015795  0.001121  4.00757  0.002  0.002131  -0.020433  0.002046  3.973977  0.003
C  C48  1  0.57848437  0.20900270  0.98566571  1  -0.048847  0.003512  3.658749  0.005  -0.089774  0.000811  3.916212  0.001  -0.088072  0.000195  3.93445  0.001  0.002711  -0.090983  0.001363  3.904388  0.002
C  C49  1  0.42151719  0.79099304  0.01433167  1  -0.048968  0.003504  3.658984  0.005  -0.089857  0.000811  3.916455  0.001  -0.088157  0.000193  3.934694  0.001  0.002755  -0.091066  0.001359  3.904632  0.002
C  C50  1  0.38770044  0.22673578  0.05404307  1  0.169139  -0.013335  3.632759  -0.008  0.111819  0.000632  3.897869  0.002  0.128127  0.000572  3.909745  0.001  0.145381  0.10057  0.000656  3.889803  0.002
C  C51  1  0.61229828  0.77325996  0.94595349  1  0.169232  -0.013334  3.632792  -0.008  0.111921  0.000633  3.897901  0.002  0.128227  0.000574  3.909777  0.001  0.145468  0.100675  0.00066  3.889829  0.002
C  C52  1  0.41901007  0.28639807  0.89120900  1  0.156  0.000363  3.80219  0.001  0.147442  0.000145  4.048837  0.0  0.151441  1.6e-05  4.072013  0.0  0.085358  0.144679  0.000262  4.033261  0.0
C  C53  1  0.58098945  0.71359669  0.10878953  1  0.156067  0.000368  3.801992  0.001  0.1475  0.000147  4.048669  0.0  0.151516  1.5e-05  4.071818  0.0  0.085409  0.144718  0.000259  4.033121  0.0
C  C54  1  0.46223941  0.23137975  0.78453964  1  -0.123434  0.000356  3.737582  0.001  -0.143732  0.000415  3.989767  0.001  -0.146027  0.000322  4.010144  0.0  -0.088326  -0.142633  0.000491  3.97671  0.001
C  C55  1  0.53775904  0.76861400  0.21545778  1  -0.123394  0.000365  3.737611  0.001  -0.143628  0.000414  3.989762  0.001  -0.145929  0.000322  4.010141  0.0  -0.088322  -0.142527  0.000486  3.97671  0.001
C  C56  1  0.42720419  0.27745524  0.70494944  1  -0.160271  -0.000126  3.723341  0.0  -0.18296  -0.000104  3.973615  0.0  -0.187476  -0.000195  3.993775  0.0  -0.095349  -0.179926  -2.8e-05  3.960921  0.0
C  C57  1  0.57279926  0.72254050  0.29504798  1  -0.160325  -0.000137  3.723321  0.0  -0.183042  -0.000105  3.97362  0.0  -0.187565  -0.000194  3.993769  0.0  -0.095357  -0.180001  -2.4e-05  3.960919  0.0
C  C58  1  0.34787024  0.37749342  0.73338330  1  0.264331  0.000175  3.790706  0.0  0.257416  0.000239  4.047883  0.0  0.266232  0.000212  4.064482  0.0  0.083725  0.251005  0.000272  4.037011  0.0
C  C59  1  0.65212929  0.62250132  0.26661371  1  0.264469  0.000169  3.79068  0.0  0.257529  0.000239  4.047892  0.0  0.266373  0.000212  4.064493  0.0  0.08378  0.251133  0.000271  4.037008  0.0
C  C60  1  0.30369130  0.43255219  0.83969097  1  -0.169139  -0.000164  3.775496  0.0  -0.189143  -0.000168  4.023349  0.0  -0.1933  -0.000244  4.044621  0.0  -0.10021  -0.18578  -0.000126  4.008593  0.0
C  C61  1  0.69630498  0.56743956  0.16030651  1  -0.169284  -0.000137  3.775619  0.0  -0.189326  -0.000168  4.023505  0.0  -0.193483  -0.000246  4.044775  0.0  -0.100331  -0.185966  -0.000131  4.008746  0.0
C  C62  1  0.34034642  0.38730199  0.91915843  1  -0.128115  8.9e-05  3.774445  0.0  -0.149612  0.0002  4.028595  0.0  -0.152178  0.000192  4.049973  0.0  -0.092415  -0.147836  0.000263  4.013941  0.0
C  C63  1  0.65965151  0.61268773  0.08083614  1  -0.128043  7.6e-05  3.774182  0.0  -0.149603  0.000199  4.028378  0.0  -0.152169  0.000193  4.049743  0.0  -0.092379  -0.147815  0.000269  4.013727  0.0
C  C64  1  0.78845078  0.66615467  0.66865513  1  0.166083  -0.012917  3.628932  -0.008  0.109471  0.001412  3.893611  0.002  0.125762  0.001357  3.905018  0.002  0.141774  0.098547  0.001029  3.885846  0.002
C  C65  1  0.21155411  0.33384511  0.33134667  1  0.166066  -0.012902  3.628805  -0.008  0.109481  0.001412  3.893482  0.002  0.125774  0.001358  3.904886  0.002  0.14177  0.098557  0.001035  3.885719  0.002
C  C66  1  0.61039391  0.52735747  0.61304272  1  0.017769  -0.005465  3.709512  -0.003  -0.012745  0.000474  3.981014  0.002  -0.009328  -3.5e-05  3.999525  0.001  0.005174  -0.015109  0.001009  3.968455  0.002
C  C67  1  0.38960481  0.47264530  0.38695613  1  0.017907  -0.005463  3.709367  -0.003  -0.012615  0.000474  3.980863  0.002  -0.0092  -3.3e-05  3.999376  0.001  0.005237  -0.014977  0.00101  3.968305  0.002
C  C68  1  0.70783786  0.45051248  0.59416164  1  -0.05768  0.005582  3.65298  0.007  -0.095707  0.00227  3.905328  0.003  -0.094286  0.001679  3.923361  0.002  0.000351  -0.096749  0.002951  3.893634  0.004
C  C69  1  0.29216248  0.54948827  0.40583659  1  -0.057813  0.005558  3.65302  0.007  -0.095842  0.00227  3.905384  0.003  -0.09442  0.001679  3.923415  0.002  0.000269  -0.096886  0.002951  3.893691  0.004
C  C70  1  0.94720814  0.50836590  0.63263551  1  0.160778  0.000634  3.794546  0.001  0.149448  0.000271  4.04523  0.0  0.153805  0.000228  4.068036  0.0  0.087516  0.14647  0.000294  4.030199  0.001
C  C71  1  0.05279474  0.49163287  0.36736516  1  0.160642  0.000629  3.794397  0.001  0.149266  0.000272  4.045175  0.0  0.153623  0.000228  4.067983  0.0  0.087417  0.146288  0.000295  4.03014  0.001
C  C72  1  0.96726751  0.38035246  0.62253352  1  -0.13012  -0.000583  3.759487  0.0  -0.149953  1.6e-05  4.014979  0.0  -0.152749  1.9e-05  4.036473  0.0  -0.091549  -0.148316  3e-05  4.000934  0.0
C  C73  1  0.03273189  0.61964129  0.37746391  1  -0.130005  -0.000579  3.759488  0.0  -0.149863  1.4e-05  4.01504  0.0  -0.152661  1.8e-05  4.036537  0.0  -0.091502  -0.148224  2.6e-05  4.000992  0.0
C  C74  1  0.09128808  0.35233384  0.62972777  1  -0.157327  0.000283  3.743718  0.0  -0.177964  3.6e-05  3.993077  0.0  -0.181613  3.1e-05  4.013219  0.0  -0.094796  -0.17542  1.7e-05  3.979456  0.0
C  C75  1  0.90871049  0.64766090  0.37026998  1  -0.157342  0.000308  3.743631  0.001  -0.178008  3.7e-05  3.992993  0.0  -0.181657  3.2e-05  4.01313  0.0  -0.094787  -0.17547  1.4e-05  3.979376  0.0
C  C76  1  0.19457064  0.45245908  0.64768866  1  0.264146  -0.000938  3.796895  -0.001  0.255271  -0.0002  4.057858  0.0  0.264092  -0.000117  4.073678  0.0  0.081436  0.249041  -0.000354  4.047496  0.0
C  C77  1  0.80542849  0.54753265  0.35230735  1  0.264045  -0.000945  3.796875  -0.001  0.255197  -0.000202  4.057793  0.0  0.264045  -0.00012  4.073613  0.0  0.081335  0.248981  -0.000355  4.047419  0.0
C  C78  1  0.17563499  0.57976235  0.65608796  1  -0.157558  0.000288  3.741608  0.0  -0.181465  1e-06  3.997733  0.0  -0.184614  -2.2e-05  4.016579  0.0  -0.096453  -0.179473  2.5e-05  3.985743  0.0
C  C79  1  0.82436533  0.42023140  0.34391102  1  -0.157696  0.000273  3.741588  0.0  -0.181622  2e-06  3.997713  0.0  -0.18477  -2.2e-05  4.016552  0.0  -0.096452  -0.17964  2.9e-05  3.985732  0.0
C  C80  1  0.05140573  0.60709540  0.64767607  1  -0.131936  -0.001096  3.758862  -0.001  -0.151898  -0.00024  4.012741  0.0  -0.155092  -0.000165  4.034801  0.0  -0.091609  -0.149912  -0.000481  3.998192  0.0
C  C81  1  0.94859459  0.39289836  0.35232291  1  -0.131738  -0.001077  3.758461  -0.001  -0.151705  -0.000241  4.012332  0.0  -0.154892  -0.000167  4.034379  0.0  -0.091563  -0.149718  -0.000486  3.997785  0.0
C  C82  1  0.58991905  0.12658036  0.38700660  1  0.607916  -0.006238  3.951249  -0.006  0.565143  0.001377  4.250592  0.0  0.600418  0.000481  4.247732  0.0  0.196337  0.539877  0.00233  4.251108  0.0
C  C83  1  0.41007986  0.87341745  0.61299824  1  0.60788  -0.006227  3.951487  -0.006  0.56509  0.001378  4.250849  0.0  0.600367  0.00048  4.247986  0.0  0.196329  0.539849  0.002332  4.251363  0.0
C  C84  1  0.71021487  0.08585912  0.41739265  1  -0.076911  0.002673  3.782919  0.004  -0.05326  0.001007  4.013788  0.001  -0.061171  0.000511  4.036332  0.001  -0.023067  -0.047387  0.001479  3.998412  0.002
C  C85  1  0.28978225  0.91413972  0.58261476  1  -0.077021  0.002671  3.783136  0.004  -0.053394  0.001007  4.014067  0.001  -0.061302  0.000511  4.036599  0.001  -0.0231  -0.047595  0.001482  3.998777  0.002
C  C86  1  0.71858360  0.05826907  0.51228462  1  -0.06047  -0.000637  3.726362  0.0  -0.084019  0.000423  3.974842  0.001  -0.082777  0.000275  3.992939  0.0  -0.080508  -0.08498  0.000596  3.962997  0.001
C  C87  1  0.28141149  0.94173579  0.48772395  1  -0.060444  -0.00062  3.726362  0.0  -0.083957  0.000424  3.974807  0.001  -0.082717  0.000276  3.992908  0.0  -0.080482  -0.084888  0.000594  3.962983  0.001
C  C88  1  0.83051779  0.02282029  0.54312789  1  -0.10831  0.000576  3.708981  0.001  -0.126825  0.000194  3.956351  0.0  -0.130801  5.7e-05  3.976533  0.0  -0.087632  -0.125414  0.000223  3.94388  0.0
C  C89  1  0.16947416  0.97718258  0.45688300  1  -0.108255  0.000567  3.709177  0.001  -0.126774  0.000194  3.95655  0.0  -0.130758  5.7e-05  3.976743  0.0  -0.087656  -0.12536  0.000227  3.944065  0.0
C  C90  1  0.93956466  0.01599859  0.48190954  1  0.050152  -0.000615  3.76634  0.0  0.063497  0.000218  4.000411  0.0  0.064966  0.000182  4.023273  0.0  -0.006083  0.062145  0.000225  3.985057  0.0
C  C91  1  0.06043043  0.98399925  0.51809826  1  0.05006  -0.000595  3.766381  0.0  0.063395  0.000218  4.000464  0.0  0.064862  0.000183  4.02333  0.0  -0.00612  0.062045  0.000224  3.985109  0.0
C  C92  1  0.92822648  0.03940582  0.38428807  1  -0.12128  0.000111  3.737176  0.0  -0.139104  -0.000208  3.985407  0.0  -0.143529  -0.000201  4.007152  0.0  -0.091161  -0.134503  -0.000102  3.968899  0.0
C  C93  1  0.07177084  0.96059507  0.61572609  1  -0.121239  0.000104  3.736718  0.0  -0.138972  -0.000209  3.984997  0.0  -0.143385  -0.000201  4.006726  0.0  -0.091179  -0.134372  -9.9e-05  3.968485  0.0
C  C94  1  0.81564966  0.07269752  0.35227462  1  -0.066929  -0.000415  3.754274  0.0  -0.08891  0.000565  3.999694  0.001  -0.087762  0.000396  4.019057  0.001  -0.085553  -0.089789  0.000719  3.985897  0.001
C  C95  1  0.18435435  0.92730332  0.64773435  1  -0.066967  -0.000423  3.754277  0.0  -0.088998  0.000566  3.999717  0.001  -0.087833  0.000396  4.019091  0.001  -0.085626  -0.089853  0.000716  3.985938  0.001
C  C96  1  0.19290680  0.99000379  0.16321160  1  0.612472  -0.006671  3.94466  -0.006  0.569814  0.000576  4.245496  0.0  0.60581  0.000336  4.240817  0.0  0.196194  0.544078  0.000425  4.247928  0.0
C  C97  1  0.80708529  0.01001302  0.83678864  1  0.612452  -0.00669  3.944084  -0.006  0.569855  0.000574  4.244979  0.0  0.60582  0.000336  4.240293  0.0  0.19615  0.544119  0.000431  4.247409  0.0
C  C98  1  0.12876932  0.84780743  0.12055013  1  -0.070027  0.003901  3.772519  0.006  -0.045039  0.001799  3.997242  0.003  -0.05329  0.001203  4.019416  0.002  -0.022694  -0.040208  0.002184  3.983609  0.003
C  C99  1  0.87122834  0.15220836  0.87944762  1  -0.06988  0.003909  3.772071  0.006  -0.045215  0.001801  3.997252  0.003  -0.053348  0.001202  4.019268  0.002  -0.022752  -0.040368  0.002181  3.983589  0.003
C  C100  1  0.16137722  0.76024233  0.16763699  1  -0.079416  -0.002265  3.769938  -0.002  -0.100697  -0.000278  4.016444  0.0  -0.098831  -0.000235  4.034608  0.0  -0.090557  -0.101976  -0.000282  4.004669  0.0
C  C101  1  0.83862679  0.23977144  0.83236100  1  -0.079487  -0.00227  3.76983  -0.002  -0.100706  -0.00028  4.016456  0.0  -0.098875  -0.000234  4.034591  0.0  -0.090515  -0.101997  -0.000281  4.00468  0.0
C  C102  1  0.11034471  0.62550052  0.12120799  1  -0.113791  0.00036  3.747961  0.001  -0.132724  -0.000145  3.995807  0.0  -0.136821  -3.1e-05  4.016293  0.0  -0.09309  -0.130179  -0.000103  3.982128  0.0
C  C103  1  0.88966214  0.37451325  0.87879006  1  -0.113674  0.000362  3.747726  0.001  -0.132627  -0.000147  3.995455  0.0  -0.136731  -3.2e-05  4.015955  0.0  -0.093072  -0.130116  -0.000107  3.981764  0.0
C  C104  1  0.02569652  0.57220856  0.02526541  1  0.055722  -0.002336  3.770282  -0.001  0.069769  -0.000613  4.002012  0.0  0.071596  -0.000372  4.024762  0.0  -0.005551  0.068425  -0.00121  3.986544  -0.001
C  C105  1  0.97431916  0.42780016  0.97472890  1  0.055609  -0.002365  3.770309  -0.001  0.069848  -0.00061  4.001879  0.0  0.071677  -0.000368  4.024628  0.0  -0.005548  0.068501  -0.001207  3.98642  -0.001
C  C106  1  0.99257842  0.66198899  0.97982802  1  -0.113804  0.001058  3.738058  0.002  -0.133049  0.000366  3.987472  0.001  -0.137326  0.000254  4.0092  0.0  -0.091557  -0.129796  0.000303  3.97252  0.001
C  C107  1  0.00743430  0.33801872  0.02016438  1  -0.113942  0.001072  3.738364  0.002  -0.13327  0.000365  3.987699  0.001  -0.137552  0.000252  4.009432  0.0  -0.091602  -0.130013  0.000303  3.972741  0.001
C  C108  1  0.04191166  0.79750441  0.02687743  1  -0.064825  -0.001993  3.731018  -0.001  -0.084965  -5.9e-05  3.970782  0.0  -0.084434  -5.3e-05  3.990404  0.0  -0.082067  -0.085367  -0.000308  3.957778  0.0
C  C109  1  0.95809022  0.20250734  0.97311757  1  -0.064643  -0.00201  3.730855  -0.001  -0.08469  -5.9e-05  3.970666  0.0  -0.084187  -5.2e-05  3.990265  0.0  -0.081948  -0.0851  -0.000308  3.95766  0.0
N  N110  1  0.45825077  0.18799135  0.11776670  1  -0.37665  0.043081  3.368287  0.069  -0.331175  0.031592  3.686667  0.041  -0.361158  0.025382  3.700739  0.033  -0.364764  -0.309294  0.03711  3.677003  0.048
N  N111  1  0.54174714  0.81200540  0.88223092  1  -0.376701  0.043079  3.368371  0.069  -0.331244  0.031593  3.686781  0.041  -0.361226  0.025383  3.700851  0.033  -0.364795  -0.30936  0.037103  3.67711  0.048
N  N112  1  0.45806533  0.24119816  0.97273794  1  -0.081707  0.001923  3.609274  0.004  0.009048  0.002268  3.81749  0.004  -0.004769  0.001792  3.841193  0.003  -0.221951  0.018196  0.002692  3.801489  0.005
N  N113  1  0.54193504  0.75879556  0.02725723  1  -0.081689  0.001919  3.609355  0.004  0.009051  0.002268  3.817586  0.004  -0.004767  0.001792  3.841281  0.003  -0.222036  0.018203  0.002698  3.801594  0.005
N  N114  1  0.82063529  0.53961842  0.62999886  1  -0.087726  0.000396  3.610622  0.002  0.003722  0.000981  3.817917  0.002  -0.010488  0.000698  3.842359  0.001  -0.224992  0.01271  0.001168  3.802016  0.002
N  N115  1  0.17936663  0.46038036  0.37000256  1  -0.08766  0.000395  3.610458  0.002  0.003789  0.000981  3.817776  0.002  -0.010419  0.000698  3.842218  0.001  -0.224951  0.012778  0.001169  3.801875  0.002
N  N116  1  0.66197396  0.66175344  0.66003516  1  -0.375095  0.039377  3.348828  0.058  -0.330623  0.029376  3.674504  0.034  -0.359548  0.023355  3.685147  0.025  -0.364446  -0.309332  0.034745  3.666784  0.041
N  N117  1  0.33803056  0.33825033  0.33996490  1  -0.375154  0.039377  3.348794  0.058  -0.330686  0.029377  3.67445  0.034  -0.359613  0.023355  3.685093  0.025  -0.364458  -0.309397  0.034745  3.666733  0.041
O  O118  1  0.58560673  0.14014904  0.29282144  1  -0.632835  0.059852  2.06213  0.099  -0.596931  0.042544  2.348605  0.064  -0.641096  0.031037  2.337258  0.047  -0.33392  -0.560856  0.054045  2.353341  0.081
O  O119  1  0.41439514  0.85985680  0.70718608  1  -0.632723  0.059851  2.062208  0.099  -0.596828  0.042541  2.348673  0.064  -0.640987  0.031034  2.337315  0.047  -0.333931  -0.560752  0.05404  2.353402  0.081
O  O120  1  0.49948355  0.14713749  0.44918326  1  -0.588964  0.00782  1.925169  0.014  -0.550319  0.009716  2.152526  0.016  -0.576732  0.006807  2.144713  0.012  -0.303231  -0.530454  0.01331  2.156738  0.022
O  O121  1  0.50050747  0.85285726  0.55081281  1  -0.588953  0.007815  1.925342  0.014  -0.550271  0.009715  2.152705  0.016  -0.576688  0.006805  2.144895  0.012  -0.303164  -0.530405  0.013309  2.156903  0.022
O  O122  1  0.29131601  0.01681876  0.23401574  1  -0.634181  0.055928  2.086878  0.093  -0.598426  0.040796  2.383911  0.061  -0.641811  0.029967  2.370763  0.044  -0.332694  -0.563845  0.051855  2.390784  0.078
O  O123  1  0.70867946  0.98319503  0.76598359  1  -0.634329  0.05593  2.086727  0.093  -0.598528  0.040793  2.38373  0.061  -0.641911  0.029965  2.370582  0.044  -0.33282  -0.563952  0.05185  2.390612  0.078
O  O124  1  0.15406946  0.07224543  0.13003591  1  -0.609408  0.003229  1.898813  0.006  -0.571959  0.004678  2.117716  0.008  -0.596676  0.003358  2.109658  0.006  -0.323377  -0.553508  0.006232  2.122263  0.01
O  O125  1  0.84592300  0.92776739  0.86996684  1  -0.609328  0.003238  1.898574  0.006  -0.571897  0.00468  2.117495  0.008  -0.596614  0.00336  2.109449  0.006  -0.323256  -0.553442  0.006236  2.122041  0.01
O  O126  1  0.31872542  0.42511805  0.65369548  1  -0.299896  2.4e-05  2.332936  0.0  -0.231842  6.4e-05  2.554574  0.0  -0.249013  2.4e-05  2.556636  0.0  -0.155326  -0.219662  8.8e-05  2.552902  0.0
O  O127  1  0.68127753  0.57487365  0.34629757  1  -0.29984  2e-05  2.332985  0.0  -0.231758  6.5e-05  2.554608  0.0  -0.248997  2.5e-05  2.556713  0.0  -0.15529  -0.219593  8.9e-05  2.552936  0.0
