# generated using pymatgen
data_CuH17C19N7F6
_symmetry_space_group_name_H-M   'P 1'
_cell_length_a   11.10927399
_cell_length_b   11.10732484
_cell_length_c   21.25499704
_cell_angle_alpha   90.00133223
_cell_angle_beta   89.99980177
_cell_angle_gamma   117.19271361
_symmetry_Int_Tables_number   1
_chemical_formula_structural   CuH17C19N7F6
_chemical_formula_sum   'Cu4 H68 C76 N28 F24'
_cell_volume   2332.86549483
_cell_formula_units_Z   4
loop_
 _symmetry_equiv_pos_site_id
 _symmetry_equiv_pos_as_xyz
  1  'x, y, z'
loop_
 _atom_site_type_symbol
 _atom_site_label
 _atom_site_symmetry_multiplicity
 _atom_site_fract_x
 _atom_site_fract_y
 _atom_site_fract_z
 _atom_site_occupancy
 _atom_site_pbe_bader_charge
 _atom_site_pbe_bader_spin_density
 _atom_site_pbe_cm5_charge
 _atom_site_pbe_ddec_charge
 _atom_site_pbe_ddec_spin_density
 _atom_site_pbe_ddec_sum_bond_order
 _atom_site_pbe_magmom
Cu  Cu0  1  0.95905686  0.02471862  0.84778224  1  0.95458  -0.511272  0.74278  0.501169  -0.734546  2.369653  -0.512
Cu  Cu1  1  0.54090127  0.47524107  0.34779828  1  0.954963  0.512739  0.742674  0.501266  0.692693  2.369192  0.513
Cu  Cu2  1  0.04089833  0.97523080  0.15221007  1  0.954737  0.512732  0.742712  0.501434  0.692706  2.369221  0.513
Cu  Cu3  1  0.45905797  0.52470931  0.65221427  1  0.95469  0.511301  0.742727  0.501135  0.690827  2.369359  0.512
H  H4  1  0.08619656  0.70328207  0.96978168  1  0.085335  -0.00046  0.110114  0.14269  -0.000245  0.997065  0.0
H  H5  1  0.41391580  0.79688160  0.46973191  1  0.085022  0.000444  0.110225  0.142721  0.000216  0.997108  0.0
H  H6  1  0.91391297  0.29685256  0.03027133  1  0.085095  0.000461  0.110243  0.142854  0.000227  0.996967  0.0
H  H7  1  0.58622094  0.20331683  0.53019595  1  0.085274  0.000448  0.110275  0.142856  0.000221  0.996878  0.0
H  H8  1  0.84615751  0.68167673  0.02282009  1  0.065353  -0.001669  0.110994  0.124633  -0.000907  0.986968  -0.001
H  H9  1  0.65384620  0.81835435  0.52282998  1  0.065322  0.00176  0.110997  0.12465  0.000919  0.986766  0.001
H  H10  1  0.15382008  0.31830701  0.97718069  1  0.065592  0.001668  0.111039  0.124713  0.000851  0.986849  0.001
H  H11  1  0.34621946  0.18167902  0.47717504  1  0.065488  0.001763  0.11095  0.12463  0.000923  0.986935  0.001
H  H12  1  0.65110037  0.71527924  0.06331482  1  0.071926  -9.7e-05  0.105994  0.105878  -5.2e-05  1.004472  0.0
H  H13  1  0.84889518  0.78471667  0.56332091  1  0.071996  0.000107  0.105906  0.105912  6.4e-05  1.004418  0.0
H  H14  1  0.34884678  0.28467031  0.93668455  1  0.072356  9.7e-05  0.105955  0.105855  4.5e-05  1.004615  0.0
H  H15  1  0.15109804  0.21520058  0.43668693  1  0.073207  0.000109  0.105913  0.105841  6.7e-05  1.004162  0.0
H  H16  1  0.60739565  0.89946212  0.02000907  1  0.101287  -0.001551  0.105785  0.121735  -0.00084  1.008491  -0.001
H  H17  1  0.89255101  0.60051258  0.52001597  1  0.101489  0.001579  0.106012  0.122106  0.000817  1.008169  0.001
H  H18  1  0.39251623  0.10045636  0.97997383  1  0.099759  0.001549  0.105936  0.121929  0.000789  1.008025  0.001
H  H19  1  0.10738398  0.39938415  0.47997823  1  0.101768  0.001581  0.105953  0.122188  0.000819  1.008191  0.001
H  H20  1  0.58559068  0.10021360  0.95144450  1  0.089166  -0.000387  0.10074  0.13136  -0.000181  1.038764  0.0
H  H21  1  0.91456334  0.39995726  0.45140869  1  0.089048  0.00049  0.100783  0.131323  0.000246  1.039249  0.0
H  H22  1  0.41451786  0.89988435  0.04858781  1  0.089323  0.000387  0.100709  0.131395  0.000163  1.038951  0.0
H  H23  1  0.08556144  0.60021180  0.54856386  1  0.089157  0.000491  0.10082  0.131353  0.000248  1.039035  0.0
H  H24  1  0.64916412  0.92987939  0.80156842  1  0.081953  0.001139  0.106953  0.098152  0.000585  0.993217  0.001
H  H25  1  0.85085360  0.57016102  0.30158255  1  0.082259  0.001163  0.107023  0.098305  0.000591  0.992877  0.001
H  H26  1  0.35084671  0.07015990  0.19842154  1  0.082259  0.001164  0.107032  0.098232  0.000592  0.992949  0.001
H  H27  1  0.14916444  0.42988020  0.69842765  1  0.081732  -0.00114  0.106909  0.098127  -0.000621  0.993117  -0.001
H  H28  1  0.63223530  0.79433193  0.85088310  1  0.036029  0.000614  0.102022  0.087253  0.000308  0.984034  0.0
H  H29  1  0.86775356  0.70570780  0.35088657  1  0.03611  0.00056  0.101991  0.08734  0.000262  0.984073  0.0
H  H30  1  0.36775756  0.20572089  0.14911863  1  0.036299  0.00056  0.102009  0.08738  0.000259  0.983923  0.0
H  H31  1  0.13222735  0.29433297  0.64911187  1  0.036227  -0.000614  0.102024  0.087324  -0.000324  0.984038  0.0
H  H32  1  0.45257296  0.65547476  0.78509537  1  0.086795  0.001486  0.099625  0.080881  0.000676  1.026054  0.001
H  H33  1  0.04743447  0.84456325  0.28509142  1  0.087172  0.001602  0.099678  0.081041  0.000769  1.026058  0.001
H  H34  1  0.54744139  0.34456244  0.21491624  1  0.087102  0.001602  0.099681  0.081023  0.000769  1.026091  0.001
H  H35  1  0.95257447  0.15547200  0.71490184  1  0.086961  -0.001487  0.09964  0.080884  -0.000725  1.026033  -0.001
H  H36  1  0.49493917  0.78122043  0.72712990  1  0.112365  0.000226  0.105576  0.09616  8.6e-05  1.034492  0.0
H  H37  1  0.00506393  0.71879175  0.22713733  1  0.112585  0.000225  0.105548  0.096148  8.6e-05  1.034681  0.0
H  H38  1  0.50507194  0.21879644  0.27286807  1  0.112459  0.000225  0.10553  0.096056  8.5e-05  1.034753  0.0
H  H39  1  0.99494224  0.28122417  0.77286581  1  0.112429  -0.000227  0.10558  0.096231  -0.000102  1.034498  0.0
H  H40  1  0.79101990  0.69996739  0.84132623  1  0.055379  0.001689  0.101041  0.085576  0.000899  1.002347  0.001
H  H41  1  0.70893371  0.80005294  0.34130158  1  0.056189  0.001572  0.100922  0.085381  0.000794  1.002602  0.001
H  H42  1  0.20893976  0.30006453  0.15870373  1  0.056354  0.001574  0.100942  0.085434  0.000789  1.002682  0.001
H  H43  1  0.29100820  0.19995071  0.65866674  1  0.055271  -0.001692  0.101064  0.085642  -0.000948  1.002232  -0.001
H  H44  1  0.88266135  0.72890011  0.77007045  1  0.094538  0.000193  0.107719  0.102047  7.1e-05  0.967057  0.0
H  H45  1  0.61733807  0.77109589  0.27002665  1  0.092924  0.000205  0.107747  0.102032  8.8e-05  0.967184  0.0
H  H46  1  0.11734697  0.27111272  0.22997503  1  0.069719  0.000216  0.107737  0.102066  8.7e-05  0.96716  0.0
H  H47  1  0.38265708  0.22889268  0.72992568  1  0.094747  -0.000194  0.107696  0.101981  -8e-05  0.96707  0.0
H  H48  1  0.69081837  0.53537187  0.73243909  1  0.144891  0.001264  0.104778  0.091982  0.000655  1.070556  0.001
H  H49  1  0.80918745  0.96464013  0.23242628  1  0.144685  0.001267  0.10486  0.091968  0.000657  1.070461  0.001
H  H50  1  0.30918990  0.46463892  0.26758851  1  0.144923  0.001267  0.104899  0.09198  0.000658  1.070473  0.001
H  H51  1  0.19082356  0.03537267  0.76756086  1  0.144973  -0.001265  0.104803  0.092025  -0.000706  1.070406  -0.001
H  H52  1  0.58918521  0.54169118  0.79597364  1  0.035044  9.6e-05  0.097418  0.076662  -5.3e-05  1.018011  0.0
H  H53  1  0.91080758  0.95832686  0.29596821  1  0.035192  0.000229  0.097409  0.076681  5e-05  1.017948  0.0
H  H54  1  0.41081483  0.45834624  0.20404315  1  0.034875  0.000231  0.097365  0.076594  5.2e-05  1.017853  0.0
H  H55  1  0.08917776  0.04167919  0.70402693  1  0.034879  -9.6e-05  0.09739  0.076657  4.7e-05  1.017929  0.0
H  H56  1  0.90233363  0.90881429  0.70022439  1  0.048588  0.001103  0.101484  0.079972  0.000561  1.016722  0.001
H  H57  1  0.59769842  0.59116379  0.20021095  1  0.049202  0.001082  0.101549  0.080221  0.00054  1.016764  0.001
H  H58  1  0.09769728  0.09117374  0.29978910  1  0.049207  0.001083  0.101581  0.080237  0.000541  1.016743  0.001
H  H59  1  0.40234567  0.40881589  0.79976772  1  0.048463  -0.001102  0.101461  0.079878  -0.000593  1.016695  -0.001
H  H60  1  0.78006279  0.97018595  0.70786518  1  0.055126  0.00029  0.107519  0.098029  0.00012  0.982122  0.0
H  H61  1  0.71999796  0.52983597  0.20786257  1  0.054432  0.00034  0.107636  0.09815  0.000161  0.98225  0.0
H  H62  1  0.21998682  0.02983237  0.29213749  1  0.054576  0.000342  0.107606  0.098082  0.000162  0.982313  0.0
H  H63  1  0.28007427  0.47019220  0.79212692  1  0.054993  -0.000289  0.107505  0.09791  -0.000128  0.982158  0.0
H  H64  1  0.64599855  0.79111021  0.64038478  1  0.054352  0.001792  0.106318  0.08724  0.000801  0.991478  0.001
H  H65  1  0.85403585  0.70889279  0.14038647  1  0.053845  0.001725  0.106293  0.087221  0.000755  0.991552  0.001
H  H66  1  0.35402733  0.20889013  0.35962071  1  0.053946  0.001795  0.106338  0.087304  0.000807  0.991549  0.001
H  H67  1  0.14600792  0.29112460  0.85960961  1  0.054145  -0.001723  0.106369  0.08741  -0.000816  0.991251  -0.001
H  H68  1  0.74811540  0.70709549  0.65242351  1  0.067312  0.000406  0.10704  0.091137  8.3e-05  1.013788  0.0
H  H69  1  0.75190603  0.79289313  0.15240514  1  0.067394  0.000429  0.107036  0.091263  0.000117  1.013587  0.0
H  H70  1  0.25190590  0.29290084  0.34759562  1  0.06754  0.000405  0.107049  0.091169  8.7e-05  1.013638  0.0
H  H71  1  0.24812247  0.20710513  0.84757212  1  0.067319  -0.00043  0.107133  0.091291  -0.000129  1.013772  0.0
C  C72  1  0.19669655  0.83171798  0.88686332  1  0.50136  -0.005596  0.050228  -0.055818  -0.005051  4.120475  -0.007
C  C73  1  0.30329504  0.66829273  0.38688172  1  0.502785  0.005623  0.05001  -0.056048  0.004726  4.121588  0.007
C  C74  1  0.80326204  0.16825789  0.11311912  1  0.50226  0.005578  0.050091  -0.056205  0.004688  4.121172  0.007
C  C75  1  0.69673040  0.33174125  0.61312095  1  0.502111  0.005639  0.050183  -0.055873  0.004737  4.120915  0.007
C  C76  1  0.09666417  0.77610365  0.93350357  1  -0.023119  0.001339  -0.113454  -0.243026  0.000618  3.968076  0.001
C  C77  1  0.40337456  0.72399169  0.43348872  1  -0.023617  -0.001319  -0.113465  -0.242863  -0.000764  3.968827  -0.001
C  C78  1  0.90337741  0.22396474  0.06652121  1  -0.022477  -0.001236  -0.113482  -0.243126  -0.000685  3.968245  -0.001
C  C79  1  0.59668331  0.27611722  0.56648290  1  -0.023289  -0.001421  -0.113418  -0.242976  -0.000836  3.96803  -0.001
C  C80  1  0.01581100  0.84022506  0.92286903  1  0.348684  -0.006356  0.068033  0.076801  -0.005351  4.075091  -0.007
C  C81  1  0.48418077  0.65981634  0.42286802  1  0.348486  0.006441  0.067995  0.076878  0.005009  4.075009  0.007
C  C82  1  0.98419045  0.15979807  0.07714869  1  0.348929  0.00646  0.068055  0.077048  0.005029  4.074746  0.007
C  C83  1  0.51583844  0.34023506  0.57712382  1  0.348957  0.006334  0.067755  0.076676  0.004914  4.0753  0.007
C  C84  1  0.89921397  0.83994967  0.95329200  1  0.503444  0.000676  0.122154  0.206768  -0.000687  4.041244  0.001
C  C85  1  0.60081453  0.66009661  0.45327374  1  0.503007  -0.000726  0.122182  0.206702  0.00033  4.040777  -0.001
C  C86  1  0.10082440  0.16008309  0.04674360  1  0.502951  -0.00061  0.122154  0.206942  0.000437  4.041194  -0.001
C  C87  1  0.39924305  0.33995217  0.54670352  1  0.503384  -0.00078  0.12212  0.206558  0.00028  4.041612  -0.001
C  C88  1  0.82236298  0.75872407  0.00307609  1  0.022079  -0.006045  -0.090187  -0.186087  -0.004742  3.949173  -0.005
C  C89  1  0.67765386  0.74131990  0.50307268  1  0.022685  0.005855  -0.090029  -0.18579  0.004295  3.948784  0.005
C  C90  1  0.17764345  0.24128472  0.99693975  1  0.023441  0.006076  -0.090242  -0.18633  0.004479  3.949413  0.005
C  C91  1  0.32240823  0.25871352  0.49691823  1  0.021753  0.005846  -0.090094  -0.185896  0.004293  3.94919  0.005
C  C92  1  0.71500847  0.77904912  0.02573706  1  -0.032367  0.00339  -0.070912  -0.022688  0.002326  3.998955  0.002
C  C93  1  0.78498612  0.72097208  0.52573753  1  -0.032138  -0.003517  -0.070845  -0.022872  -0.00259  3.999449  -0.002
C  C94  1  0.28496453  0.22093062  0.97426749  1  -0.032803  -0.003367  -0.070846  -0.022508  -0.002456  3.999458  -0.002
C  C95  1  0.21502273  0.27899386  0.47426279  1  -0.032958  -0.003519  -0.070637  -0.022435  -0.00259  3.999029  -0.002
C  C96  1  0.68800880  0.88048115  0.00107155  1  0.011487  -0.00579  -0.086619  -0.163791  -0.004579  3.919945  -0.005
C  C97  1  0.81197449  0.61953161  0.50106734  1  0.009358  0.005954  -0.086936  -0.164313  0.0044  3.920879  0.005
C  C98  1  0.31195426  0.11949466  0.99892971  1  0.01327  0.005794  -0.086733  -0.163887  0.004305  3.920178  0.005
C  C99  1  0.18799905  0.38041855  0.49893109  1  0.008428  0.005952  -0.087016  -0.164711  0.004401  3.921018  0.005
C  C100  1  0.76708989  0.95708517  0.95065557  1  0.447478  0.000698  0.125507  0.206231  -0.000587  4.042453  0.001
C  C101  1  0.73294216  0.54296293  0.45064364  1  0.449006  -0.00076  0.125327  0.206168  0.000232  4.04289  -0.001
C  C102  1  0.23292003  0.04293681  0.04935933  1  0.447154  -0.000655  0.125426  0.206024  0.00032  4.043175  -0.001
C  C103  1  0.26707200  0.45705083  0.54934162  1  0.449229  -0.000802  0.125546  0.206345  0.000196  4.042731  -0.001
C  C104  1  0.75447566  0.06241190  0.91586113  1  0.395496  -0.006474  0.065889  0.073359  -0.005429  4.082078  -0.007
C  C105  1  0.74554466  0.43761819  0.41586526  1  0.395008  0.006564  0.065934  0.073388  0.005102  4.082229  0.007
C  C106  1  0.24551907  0.93757769  0.08413025  1  0.394909  0.00658  0.065949  0.073371  0.005124  4.082157  0.007
C  C107  1  0.25445777  0.56239167  0.58412753  1  0.39604  0.006467  0.065781  0.07306  0.005004  4.082086  0.007
C  C108  1  0.66622969  0.12008667  0.91817646  1  -0.016272  0.001275  -0.116181  -0.245973  0.000606  3.991545  0.001
C  C109  1  0.83382488  0.37998382  0.41817942  1  -0.015462  -0.001158  -0.11633  -0.246056  -0.000645  3.991904  -0.001
C  C110  1  0.33378947  0.87993008  0.08181868  1  -0.015865  -0.001162  -0.11634  -0.24613  -0.000652  3.991728  -0.001
C  C111  1  0.16620710  0.62006025  0.58181901  1  -0.016769  -0.001266  -0.116316  -0.245832  -0.000722  3.992041  -0.001
C  C112  1  0.70673631  0.20860102  0.86673817  1  0.483776  -0.005913  0.046774  -0.058708  -0.005186  4.136002  -0.007
C  C113  1  0.79325788  0.29134703  0.36677131  1  0.48452  0.005915  0.046733  -0.05869  0.004842  4.135236  0.007
C  C114  1  0.29323274  0.79133188  0.13323721  1  0.483721  0.005898  0.046695  -0.058618  0.004833  4.135415  0.007
C  C115  1  0.20672074  0.70857554  0.63325911  1  0.484264  0.005927  0.046667  -0.058841  0.004846  4.136094  0.007
C  C116  1  0.64945278  0.29840748  0.84496329  1  1.631531  -0.000887  0.303734  0.678864  -0.000615  4.012571  -0.001
C  C117  1  0.85053335  0.20151595  0.34498279  1  1.631598  0.000882  0.30346  0.678437  0.000563  4.013602  0.001
C  C118  1  0.35051826  0.70151623  0.15502009  1  1.631117  0.000881  0.303289  0.678097  0.000566  4.013569  0.001
C  C119  1  0.14941187  0.79836228  0.65503964  1  1.631922  0.000888  0.303792  0.678383  0.000569  4.013164  0.001
C  C120  1  0.31091720  0.80083548  0.87416228  1  1.63274  -0.000971  0.304179  0.678579  -0.000687  4.006098  -0.001
C  C121  1  0.18908774  0.69917121  0.37419061  1  1.63172  0.000977  0.304344  0.678866  0.000643  4.006394  0.001
C  C122  1  0.68905139  0.19914636  0.12581263  1  1.631426  0.000975  0.304158  0.679253  0.000636  4.006282  0.001
C  C123  1  0.81095611  0.30086555  0.62582523  1  1.63125  0.000976  0.304149  0.678391  0.000644  4.006481  0.001
C  C124  1  0.64897063  0.83118979  0.80215497  1  0.266192  0.008309  -0.075603  -0.090397  0.005854  3.850786  0.006
C  C125  1  0.85102901  0.66884278  0.30216231  1  0.263548  0.008237  -0.075576  -0.090667  0.005791  3.850868  0.006
C  C126  1  0.35103204  0.16884555  0.19784581  1  0.263362  0.008238  -0.075619  -0.09058  0.00579  3.850772  0.006
C  C127  1  0.14897624  0.33118845  0.69783942  1  0.265845  -0.008312  -0.075581  -0.090436  -0.006218  3.850872  -0.006
C  C128  1  0.53704798  0.73082623  0.75791141  1  0.186141  0.003119  -0.081854  -0.108862  0.002826  3.826449  0.001
C  C129  1  0.96296013  0.76920764  0.25791280  1  0.187887  0.00332  -0.081803  -0.108843  0.003015  3.826406  0.001
C  C130  1  0.46296900  0.26920890  0.24209361  1  0.188124  0.003322  -0.081853  -0.10876  0.003016  3.82661  0.001
C  C131  1  0.03705274  0.23082449  0.74208752  1  0.185928  -0.003121  -0.081749  -0.108892  -0.003101  3.826575  -0.001
C  C132  1  0.78811803  0.71908869  0.79086057  1  0.222407  0.008099  -0.072385  -0.082223  0.00569  3.835589  0.006
C  C133  1  0.71186759  0.78091794  0.29083897  1  0.221679  0.007954  -0.072334  -0.082159  0.005552  3.836463  0.006
C  C134  1  0.21187248  0.28092646  0.20916468  1  0.243206  0.007954  -0.072366  -0.082246  0.005553  3.836516  0.006
C  C135  1  0.28811638  0.21908711  0.70913594  1  0.222294  -0.008103  -0.072335  -0.082202  -0.006044  3.835778  -0.006
C  C136  1  0.66259112  0.60203613  0.76000627  1  0.202632  0.003667  -0.0827  -0.106695  0.003183  3.812886  0.002
C  C137  1  0.83740293  0.89797158  0.25999579  1  0.204071  0.003895  -0.08271  -0.106602  0.003391  3.812743  0.002
C  C138  1  0.33740863  0.39797378  0.24001475  1  0.205583  0.003891  -0.082664  -0.10653  0.003395  3.812496  0.002
C  C139  1  0.16259098  0.10203739  0.73999371  1  0.20266  -0.003668  -0.082674  -0.106761  -0.003479  3.812837  -0.002
C  C140  1  0.79847431  0.88209031  0.71477450  1  0.246732  0.005784  -0.069823  -0.081463  0.004154  3.848983  0.004
C  C141  1  0.70154531  0.61790717  0.21476789  1  0.246685  0.005732  -0.070053  -0.081993  0.004059  3.849495  0.004
C  C142  1  0.20154441  0.11791014  0.28523617  1  0.246559  0.005726  -0.070051  -0.081832  0.004058  3.849386  0.004
C  C143  1  0.29848135  0.38208907  0.78521643  1  0.247251  -0.005791  -0.069719  -0.080997  -0.00441  3.848837  -0.004
C  C144  1  0.69766415  0.75957474  0.67584999  1  0.238085  0.000501  -0.078242  -0.106773  0.000631  3.838  -0.001
C  C145  1  0.80234845  0.74042357  0.17584153  1  0.238463  0.00062  -0.078239  -0.106624  0.000761  3.837525  -0.001
C  C146  1  0.30235326  0.24042674  0.32416068  1  0.238012  0.000613  -0.078304  -0.106715  0.000757  3.837798  -0.001
C  C147  1  0.19767480  0.25957884  0.82414562  1  0.238302  -0.00051  -0.078425  -0.107246  -0.000876  3.838146  0.001
N  N148  1  0.17771993  0.92228185  0.85068843  1  -0.613546  -0.01686  -0.221798  -0.173535  -0.012106  3.290027  -0.012
N  N149  1  0.32218660  0.57765154  0.35073244  1  -0.613525  0.016904  -0.221605  -0.173277  0.011364  3.29019  0.012
N  N150  1  0.82214637  0.07760471  0.14927048  1  -0.613789  0.016945  -0.221594  -0.17337  0.011392  3.290198  0.012
N  N151  1  0.67775460  0.42229300  0.64930881  1  -0.613428  0.016809  -0.221744  -0.173582  0.011305  3.290059  0.012
N  N152  1  0.06769761  0.92687908  0.87261583  1  -0.686252  -0.086454  -0.263502  -0.193083  -0.064516  3.592968  -0.076
N  N153  1  0.43222224  0.57307478  0.37264462  1  -0.685964  0.086613  -0.263353  -0.193307  0.060803  3.593041  0.076
N  N154  1  0.93220155  0.07304877  0.12736614  1  -0.686545  0.086635  -0.263455  -0.193331  0.06082  3.593049  0.076
N  N155  1  0.56772455  0.42687783  0.62738252  1  -0.686782  0.086463  -0.263322  -0.192922  0.060709  3.592786  0.076
N  N156  1  0.86664561  0.93230684  0.92787322  1  -1.226009  -0.105989  -0.350139  -0.293639  -0.076948  3.598997  -0.091
N  N157  1  0.63339947  0.56775398  0.42785460  1  -1.226461  0.106223  -0.350065  -0.293454  0.072571  3.598789  0.091
N  N158  1  0.13340399  0.06774411  0.07216568  1  -1.226827  0.106109  -0.350169  -0.293707  0.072491  3.599419  0.091
N  N159  1  0.36663901  0.43228286  0.57212173  1  -1.2259  0.106092  -0.350067  -0.293421  0.072496  3.598961  0.091
N  N160  1  0.84134343  0.11730113  0.86582970  1  -0.697587  -0.082726  -0.26458  -0.197371  -0.061738  3.586658  -0.072
N  N161  1  0.65862294  0.38262792  0.36585903  1  -0.69666  0.083039  -0.264836  -0.197719  0.058297  3.586553  0.072
N  N162  1  0.15861088  0.88261569  0.13414709  1  -0.695996  0.083057  -0.26487  -0.197813  0.058305  3.586418  0.072
N  N163  1  0.34133590  0.61729087  0.63415775  1  -0.696924  0.082725  -0.264337  -0.197047  0.058099  3.58619  0.072
N  N164  1  0.81223934  0.20596989  0.83556027  1  -0.603724  -0.014337  -0.228195  -0.184077  -0.010281  3.255512  -0.01
N  N165  1  0.68767999  0.29389181  0.33561517  1  -0.60524  0.0144  -0.227791  -0.183729  0.00964  3.254889  0.01
N  N166  1  0.18767932  0.79390160  0.16439959  1  -0.605176  0.014448  -0.227588  -0.183491  0.00967  3.254981  0.01
N  N167  1  0.31223754  0.70595422  0.66443266  1  -0.604548  0.014297  -0.228094  -0.183895  0.009579  3.25493  0.01
N  N168  1  0.78404617  0.84940869  0.78252875  1  -0.984537  0.00682  -0.340256  -0.131393  0.004367  3.439688  0.004
N  N169  1  0.71596553  0.65061335  0.28252765  1  -0.984039  0.004766  -0.340138  -0.131254  0.00333  3.439868  0.005
N  N170  1  0.21596570  0.15061938  0.21747344  1  -0.983824  0.004764  -0.340117  -0.13139  0.003327  3.439731  0.005
N  N171  1  0.28403774  0.34939446  0.71746467  1  -0.984404  -0.006827  -0.34039  -0.131614  -0.004627  3.440445  -0.004
N  N172  1  0.59346778  0.65874707  0.71792446  1  -0.956193  0.098523  -0.347174  -0.070933  0.068136  3.466841  0.087
N  N173  1  0.90653697  0.84125897  0.21791668  1  -0.956589  0.098689  -0.347372  -0.071171  0.068255  3.467132  0.087
N  N174  1  0.40654533  0.34126059  0.28208856  1  -0.956567  0.098679  -0.34732  -0.07109  0.068249  3.46733  0.087
N  N175  1  0.09347314  0.15875383  0.78207141  1  -0.956224  -0.09854  -0.347224  -0.07088  -0.072418  3.467059  -0.087
F  F176  1  0.53003596  0.27027257  0.87565739  1  -0.630806  -0.000775  -0.110175  -0.228223  -0.000549  1.292103  -0.001
F  F177  1  0.96997188  0.22967377  0.37566202  1  -0.631106  0.000853  -0.110227  -0.228293  0.000578  1.29217  0.001
F  F178  1  0.46999723  0.72973377  0.12435422  1  -0.630869  0.000776  -0.110184  -0.228268  0.000518  1.292231  0.001
F  F179  1  0.03000255  0.77022644  0.62433782  1  -0.631176  0.000852  -0.110113  -0.228044  0.000574  1.29237  0.001
F  F180  1  0.73391872  0.43357652  0.85605023  1  -0.619836  0.000152  -0.115823  -0.224798  0.000104  1.264632  0.0
F  F181  1  0.76608529  0.06640030  0.35605065  1  -0.620275  -0.000175  -0.115326  -0.224305  -0.000139  1.266213  0.0
F  F182  1  0.26611451  0.56638192  0.14392045  1  -0.619871  -0.000177  -0.11538  -0.224307  -0.000139  1.265963  0.0
F  F183  1  0.23387733  0.93355920  0.64395673  1  -0.6202  -0.000151  -0.115919  -0.224822  -0.000109  1.264707  0.0
F  F184  1  0.62149171  0.28731655  0.78213948  1  -0.620743  -5.4e-05  -0.098405  -0.20738  -2.5e-05  1.320861  0.0
F  F185  1  0.87851249  0.21267113  0.28215191  1  -0.620168  3.1e-05  -0.098431  -0.207347  -4e-06  1.320452  0.0
F  F186  1  0.37844053  0.71261080  0.21785895  1  -0.620529  3e-05  -0.098412  -0.207268  -3e-06  1.32048  0.0
F  F187  1  0.12143334  0.78727946  0.71786346  1  -0.62029  5.5e-05  -0.098482  -0.207251  2.2e-05  1.32095  0.0
F  F188  1  0.26778170  0.66673607  0.85784729  1  -0.61824  -0.000379  -0.123822  -0.238625  -0.000254  1.250706  0.0
F  F189  1  0.23217697  0.83328155  0.35788786  1  -0.61807  0.000419  -0.123949  -0.238845  0.000265  1.250856  0.0
F  F190  1  0.73214731  0.33325350  0.14210927  1  -0.617769  0.000397  -0.124001  -0.238986  0.000252  1.250913  0.0
F  F191  1  0.76781872  0.16676002  0.64213833  1  -0.61782  0.000401  -0.123846  -0.238619  0.000251  1.250815  0.0
F  F192  1  0.39204765  0.82041214  0.92646706  1  -0.625392  -0.000238  -0.121948  -0.243729  -0.000162  1.284176  0.0
F  F193  1  0.10790999  0.67956985  0.42648194  1  -0.625354  0.000244  -0.121992  -0.243739  0.000151  1.284165  0.0
F  F194  1  0.60789098  0.17953652  0.07351443  1  -0.625319  0.000247  -0.121829  -0.243837  0.000151  1.284122  0.0
F  F195  1  0.89212442  0.32044870  0.57353155  1  -0.625094  0.000236  -0.121876  -0.243604  0.00015  1.284216  0.0
F  F196  1  0.39255620  0.87732708  0.82717123  1  -0.625646  8.5e-05  -0.086678  -0.183914  6.8e-05  1.328201  0.0
F  F197  1  0.10743805  0.62270345  0.32718636  1  -0.625644  -9.4e-05  -0.086859  -0.184205  -9e-05  1.32839  0.0
F  F198  1  0.60742620  0.12268614  0.17281215  1  -0.62594  -9.4e-05  -0.086736  -0.18412  -8.9e-05  1.328487  0.0
F  F199  1  0.89258039  0.37736937  0.67282384  1  -0.625552  -8.5e-05  -0.08681  -0.183959  -6.9e-05  1.328049  0.0
