# generated using pymatgen
data_CdH7C12S(NO)2
_symmetry_space_group_name_H-M   'P 1'
_cell_length_a   8.84745612
_cell_length_b   11.70725946
_cell_length_c   12.39457605
_cell_angle_alpha   93.79361167
_cell_angle_beta   94.61820546
_cell_angle_gamma   104.32542826
_symmetry_Int_Tables_number   1
_chemical_formula_structural   CdH7C12S(NO)2
_chemical_formula_sum   'Cd4 H28 C48 S4 N8 O8'
_cell_volume   1234.93043912
_cell_formula_units_Z   4
loop_
 _symmetry_equiv_pos_site_id
 _symmetry_equiv_pos_as_xyz
  1  'x, y, z'
loop_
 _atom_site_type_symbol
 _atom_site_label
 _atom_site_symmetry_multiplicity
 _atom_site_fract_x
 _atom_site_fract_y
 _atom_site_fract_z
 _atom_site_occupancy
 _atom_site_hle17_bader_spin_density
 _atom_site_hle17_ddec_charge
 _atom_site_hle17_ddec_spin_density
 _atom_site_hle17_ddec_sum_bond_order
 _atom_site_hle17_magmom
 _atom_site_hse06_bader_spin_density
 _atom_site_hse06_ddec_charge
 _atom_site_hse06_ddec_spin_density
 _atom_site_hse06_ddec_sum_bond_order
 _atom_site_hse06_magmom
 _atom_site_pbe_bader_spin_density
 _atom_site_pbe_cm5_charge
 _atom_site_pbe_ddec_charge
 _atom_site_pbe_ddec_spin_density
 _atom_site_pbe_ddec_sum_bond_order
 _atom_site_pbe_magmom
Cd  Cd0  1  0.37346980  0.92722738  0.35743939  1  0  1.03069  0  1.7955  0  0  0.909289  0  2.196771  0  0  0.683526  0.818489  0  2.272742  0
Cd  Cd1  1  0.62652840  0.07277669  0.64255912  1  0  1.030756  0  1.79547  0  0  0.909365  0  2.196735  0  0  0.683564  0.818565  0  2.272707  0
Cd  Cd2  1  0.32007949  0.76897186  0.64928816  1  0  0.88162  0  1.989825  0  0  0.742733  0  2.415921  0  0  0.664277  0.660687  0  2.478627  0
Cd  Cd3  1  0.67991674  0.23102956  0.35071094  1  0  0.881676  0  1.989807  0  0  0.742768  0  2.415901  0  0  0.664308  0.660723  0  2.47861  0
H  H4  1  0.29397376  0.23000736  0.51420071  1  0  0.099322  0  0.945517  0  0  0.114604  0  1.004013  0  0  0.102223  0.109894  0  1.0083  0
H  H5  1  0.70602165  0.76999143  0.48579902  1  0  0.099302  0  0.945529  0  0  0.114594  0  1.003993  0  0  0.102209  0.109871  0  1.008312  0
H  H6  1  0.96256594  0.98067043  0.67408894  1  0  0.079451  0  0.955803  0  0  0.087643  0  1.026121  0  0  0.109599  0.081965  0  1.033033  0
H  H7  1  0.03742810  0.01933106  0.32591408  1  0  0.079446  0  0.955809  0  0  0.087633  0  1.026126  0  0  0.109608  0.081959  0  1.033036  0
H  H8  1  0.09551637  0.35093808  0.49589110  1  0  0.114629  0  0.933718  0  0  0.12931  0  0.989286  0  0  0.104368  0.122776  0  0.991378  0
H  H9  1  0.90448384  0.64906514  0.50410829  1  0  0.11468  0  0.933731  0  0  0.12935  0  0.989312  0  0  0.104397  0.122816  0  0.991402  0
H  H10  1  0.81938510  0.91955008  0.91035341  1  0  0.113829  0  0.928225  0  0  0.132983  0  0.974646  0  0  0.108494  0.126992  0  0.976666  0
H  H11  1  0.18060970  0.08044336  0.08964362  1  0  0.11381  0  0.928227  0  0  0.132978  0  0.974637  0  0  0.108512  0.126994  0  0.976655  0
H  H12  1  0.25087630  0.79164960  0.93537308  1  0  0.080205  0  0.933661  0  0  0.091956  0  0.995114  0  0  0.113324  0.085964  0  1.00132  0
H  H13  1  0.74911656  0.20834830  0.06462729  1  0  0.08027  0  0.933694  0  0  0.092003  0  0.995166  0  0  0.113344  0.086013  0  1.001368  0
H  H14  1  0.71814691  0.91619072  0.09484941  1  0  0.1065  0  0.927339  0  0  0.122966  0  0.980003  0  0  0.111981  0.117062  0  0.985559  0
H  H15  1  0.28185213  0.08381246  0.90514830  1  0  0.106519  0  0.92735  0  0  0.122983  0  0.980003  0  0  0.111992  0.117082  0  0.98555  0
H  H16  1  0.56275164  0.59681636  0.61659362  1  0  0.069789  0  0.94129  0  0  0.080118  0  1.005491  0  0  0.107303  0.076054  0  1.00874  0
H  H17  1  0.43725136  0.40318861  0.38340357  1  0  0.069795  0  0.941318  0  0  0.080152  0  1.00547  0  0  0.107309  0.076086  0  1.008722  0
H  H18  1  0.92074514  0.31495823  0.89779842  1  0  0.119496  0  0.970039  0  0  0.132166  0  1.029077  0  0  0.1051  0.125421  0  1.033704  0
H  H19  1  0.07926578  0.68503910  0.10220930  1  0  0.119446  0  0.969988  0  0  0.132143  0  1.029016  0  0  0.105099  0.1254  0  1.03364  0
H  H20  1  0.15517024  0.24672213  0.85945406  1  0  0.100598  0  0.940332  0  0  0.116035  0  0.996241  0  0  0.107133  0.112226  0  0.996381  0
H  H21  1  0.84484395  0.75327863  0.14054753  1  0  0.10058  0  0.94031  0  0  0.116  0  0.996232  0  0  0.107101  0.11219  0  0.99637  0
H  H22  1  0.60710984  0.40375852  0.67232092  1  0  0.107439  0  0.985257  0  0  0.119754  0  1.047635  0  0  0.094143  0.11466  0  1.047914  0
H  H23  1  0.39288922  0.59624468  0.32767760  1  0  0.1074  0  0.98511  0  0  0.119708  0  1.047496  0  0  0.094115  0.114586  0  1.047807  0
H  H24  1  0.77756825  0.47464379  0.89518970  1  0  0.103407  0  0.918656  0  0  0.121167  0  0.968118  0  0  0.113403  0.116358  0  0.970511  0
H  H25  1  0.22243544  0.52534893  0.10481098  1  0  0.103401  0  0.918665  0  0  0.121172  0  0.968111  0  0  0.113398  0.116364  0  0.970503  0
H  H26  1  0.96745888  0.78197308  0.72679033  1  0  0.081221  0  0.949894  0  0  0.088327  0  1.019674  0  0  0.111679  0.083071  0  1.025071  0
H  H27  1  0.03253739  0.21802130  0.27320924  1  0  0.081208  0  0.949762  0  0  0.088316  0  1.019557  0  0  0.111687  0.083054  0  1.024967  0
H  H28  1  0.75684755  0.67083955  0.83192140  1  0  0.104505  0  0.96285  0  0  0.115891  0  1.024131  0  0  0.103075  0.111303  0  1.023327  0
H  H29  1  0.24314528  0.32915124  0.16807621  1  0  0.104578  0  0.962895  0  0  0.115917  0  1.024216  0  0  0.103119  0.111331  0  1.023412  0
H  H30  1  0.40931774  0.27713866  0.77573571  1  0  0.115046  0  0.974857  0  0  0.124675  0  1.037695  0  0  0.106845  0.118701  0  1.041341  0
H  H31  1  0.59068871  0.72286638  0.22426327  1  0  0.115019  0  0.974854  0  0  0.124626  0  1.037732  0  0  0.106817  0.118654  0  1.041367  0
C  C32  1  0.25193702  0.01555265  0.60342167  1  0  0.679487  0  3.885449  0  0  0.657848  0  4.172722  0  0  0.205834  0.59478  0  4.187307  0
C  C33  1  0.74805669  0.98444790  0.39657887  1  0  0.679621  0  3.885274  0  0  0.657942  0  4.172609  0  0  0.205828  0.594875  0  4.187196  0
C  C34  1  0.14497308  0.09627625  0.59627186  1  0  -0.132526  0  3.734914  0  0  -0.121253  0  3.998595  0  0  -0.02179  -0.098186  0  3.960645  0
C  C35  1  0.85502233  0.90372608  0.40372885  1  0  -0.132625  0  3.734904  0  0  -0.121349  0  3.998612  0  0  -0.021835  -0.098281  0  3.960662  0
C  C36  1  0.18006971  0.20191269  0.54531322  1  0  0.006854  0  3.696497  0  0  -0.015275  0  3.963917  0  0  -0.06418  -0.027346  0  3.936147  0
C  C37  1  0.81992626  0.79808786  0.45468662  1  0  0.006876  0  3.696404  0  0  -0.015236  0  3.963814  0  0  -0.064183  -0.02731  0  3.936034  0
C  C38  1  0.99788734  0.06222363  0.63463300  1  0  0.149897  0  3.696281  0  0  0.117735  0  3.962998  0  0  0.053922  0.099704  0  3.934739  0
C  C39  1  0.00210975  0.93778045  0.36536626  1  0  0.149842  0  3.696173  0  0  0.117693  0  3.962897  0  0  0.053875  0.09966  0  3.93464  0
C  C40  1  0.07019968  0.26823426  0.53435326  1  0  -0.167008  0  3.690297  0  0  -0.192079  0  3.967361  0  0  -0.093614  -0.176051  0  3.934678  0
C  C41  1  0.92979745  0.73176632  0.46564745  1  0  -0.167072  0  3.690282  0  0  -0.192136  0  3.967331  0  0  -0.093612  -0.176109  0  3.93465  0
C  C42  1  0.92183500  0.22542650  0.57118482  1  0  0.285899  0  3.784525  0  0  0.292468  0  4.065056  0  0  0.11166  0.266971  0  4.034148  0
C  C43  1  0.07816381  0.77457584  0.42881526  1  0  0.285937  0  3.78473  0  0  0.292499  0  4.065265  0  0  0.111695  0.267002  0  4.034356  0
C  C44  1  0.40870728  0.85794729  0.13528394  1  0  0.623746  0  3.978387  0  0  0.608772  0  4.266578  0  0  0.186077  0.551315  0  4.274311  0
C  C45  1  0.59128636  0.14206026  0.86471451  1  0  0.623951  0  3.977884  0  0  0.608992  0  4.266057  0  0  0.186253  0.551536  0  4.273792  0
C  C46  1  0.58662046  0.85513553  0.82570425  1  0  0.269061  0  3.78459  0  0  0.276732  0  4.064117  0  0  0.106307  0.253116  0  4.033931  0
C  C47  1  0.41337345  0.14486582  0.17429230  1  0  0.268957  0  3.784793  0  0  0.276716  0  4.064152  0  0  0.106328  0.253077  0  4.034004  0
C  C48  1  0.69475262  0.88883093  0.91899805  1  0  -0.157492  0  3.717543  0  0  -0.180457  0  3.989545  0  0  -0.090764  -0.166688  0  3.958196  0
C  C49  1  0.30524303  0.11116870  0.08100012  1  0  -0.157314  0  3.71775  0  0  -0.180336  0  3.989741  0  0  -0.090727  -0.166562  0  3.958396  0
C  C50  1  0.37773385  0.81821834  0.93280531  1  0  0.139119  0  3.70549  0  0  0.107665  0  3.974466  0  0  0.050337  0.091747  0  3.94785  0
C  C51  1  0.62225701  0.18178394  0.06719516  1  0  0.13894  0  3.705782  0  0  0.107456  0  3.974782  0  0  0.050265  0.091542  0  3.948157  0
C  C52  1  0.63887764  0.88682123  0.02067353  1  0  -0.011597  0  3.714659  0  0  -0.03605  0  3.98639  0  0  -0.066417  -0.046609  0  3.959006  0
C  C53  1  0.36111349  0.11318191  0.97932620  1  0  -0.011781  0  3.714731  0  0  -0.036237  0  3.986487  0  0  -0.066501  -0.046791  0  3.959108  0
C  C54  1  0.47693137  0.85163184  0.02906527  1  0  -0.130761  0  3.776009  0  0  -0.120023  0  4.041597  0  0  -0.027325  -0.099324  0  4.002072  0
C  C55  1  0.52306400  0.14837398  0.97093399  1  0  -0.130674  0  3.77579  0  0  -0.119922  0  4.041353  0  0  -0.027281  -0.099227  0  4.001832  0
C  C56  1  0.11011810  0.55224493  0.76592294  1  0  0.131864  0  3.732109  0  0  0.128408  0  3.993146  0  0  0.117589  0.120855  0  3.957726  0
C  C57  1  0.88988734  0.44775669  0.23408147  1  0  0.131912  0  3.732115  0  0  0.128503  0  3.992992  0  0  0.117579  0.120948  0  3.957577  0
C  C58  1  0.24552249  0.51028411  0.74147116  1  0  0.133374  0  3.736348  0  0  0.130179  0  3.996004  0  0  0.115215  0.123203  0  3.959933  0
C  C59  1  0.75448235  0.48971570  0.25853152  1  0  0.133315  0  3.736375  0  0  0.130099  0  3.995943  0  0  0.115204  0.123117  0  3.959877  0
C  C60  1  0.47838412  0.53851025  0.66129994  1  0  0.132486  0  3.733567  0  0  0.109945  0  4.004208  0  0  0.047975  0.097376  0  3.974741  0
C  C61  1  0.52161835  0.46149651  0.33869891  1  0  0.132382  0  3.733539  0  0  0.109823  0  4.004204  0  0  0.047935  0.097257  0  3.974728  0
C  C62  1  0.99606547  0.48200453  0.82543325  1  0  0.028346  0  3.785476  0  0  0.041088  0  4.045411  0  0  -3.4e-05  0.045301  0  4.00435  0
C  C63  1  0.00394371  0.51799452  0.17457285  1  0  0.028308  0  3.785746  0  0  0.041093  0  4.045556  0  0  -3.3e-05  0.045306  0  4.004496  0
C  C64  1  0.01418399  0.37082842  0.85834695  1  0  -0.089691  0  3.716875  0  0  -0.117234  0  3.994897  0  0  -0.082195  -0.112433  0  3.958185  0
C  C65  1  0.98582776  0.62917156  0.14166013  1  0  -0.089527  0  3.71674  0  0  -0.117128  0  3.994766  0  0  -0.082159  -0.112333  0  3.95806  0
C  C66  1  0.26161963  0.40076002  0.77799499  1  0  0.022567  0  3.804036  0  0  0.036918  0  4.060157  0  0  -0.002836  0.040889  0  4.017753  0
C  C67  1  0.73838679  0.59924498  0.22200237  1  0  0.022436  0  3.804145  0  0  0.036914  0  4.060079  0  0  -0.00276  0.040896  0  4.017653  0
C  C68  1  0.14252846  0.33213634  0.83566844  1  0  -0.090751  0  3.732962  0  0  -0.117619  0  4.010868  0  0  -0.083677  -0.111054  0  3.970554  0
C  C69  1  0.85748093  0.66786353  0.16433448  1  0  -0.090731  0  3.732976  0  0  -0.117628  0  4.010861  0  0  -0.083661  -0.111062  0  3.970539  0
C  C70  1  0.50352782  0.43139448  0.69363868  1  0  -0.123318  0  3.741863  0  0  -0.140475  0  4.011063  0  0  -0.088707  -0.128477  0  3.974616  0
C  C71  1  0.49647684  0.56861222  0.30635625  1  0  -0.123185  0  3.741869  0  0  -0.140319  0  4.011086  0  0  -0.088627  -0.128306  0  3.974652  0
C  C72  1  0.86670290  0.52636819  0.84945780  1  0  -0.042374  0  3.693174  0  0  -0.064755  0  3.960151  0  0  -0.060253  -0.068782  0  3.929811  0
C  C73  1  0.13330280  0.47363075  0.15054489  1  0  -0.042339  0  3.693253  0  0  -0.064753  0  3.960194  0  0  -0.060243  -0.068779  0  3.929856  0
C  C74  1  0.97266185  0.69682344  0.75569896  1  0  0.137538  0  3.701626  0  0  0.114756  0  3.973264  0  0  0.054143  0.102367  0  3.94514  0
C  C75  1  0.02733985  0.30317368  0.24430263  1  0  0.137681  0  3.701389  0  0  0.114866  0  3.973053  0  0  0.054211  0.102476  0  3.944934  0
C  C76  1  0.85491366  0.63397116  0.81484222  1  0  -0.127733  0  3.755394  0  0  -0.147852  0  4.031776  0  0  -0.087134  -0.135988  0  3.994808  0
C  C77  1  0.14508660  0.36602150  0.18515748  1  0  -0.127903  0  3.755314  0  0  -0.147985  0  4.031735  0  0  -0.08724  -0.136124  0  3.994774  0
C  C78  1  0.39470599  0.36233018  0.75212933  1  0  -0.048224  0  3.673302  0  0  -0.07002  0  3.936987  0  0  -0.065052  -0.07226  0  3.906272  0
C  C79  1  0.60529930  0.63767129  0.24786780  1  0  -0.048191  0  3.673537  0  0  -0.070035  0  3.937225  0  0  -0.065102  -0.072274  0  3.906491  0
S  S80  1  0.63859552  0.85601360  0.69248900  1  0  -0.486073  0  2.129205  0  0  -0.466168  0  2.490791  0  0  -0.195955  -0.425739  0  2.505507  0
S  S81  1  0.36139678  0.14398960  0.30751240  1  0  -0.486041  0  2.129013  0  0  -0.466185  0  2.490576  0  0  -0.195953  -0.425755  0  2.505308  0
S  S82  1  0.76542846  0.29114097  0.55653638  1  0  -0.479276  0  2.077984  0  0  -0.458674  0  2.418516  0  0  -0.212002  -0.421908  0  2.433648  0
S  S83  1  0.23457117  0.70886400  0.44346224  1  0  -0.479276  0  2.078029  0  0  -0.458662  0  2.418555  0  0  -0.212019  -0.421892  0  2.433671  0
N  N84  1  0.89037959  0.12351806  0.62084371  1  0  -0.380011  0  3.286843  0  0  -0.322035  0  3.563456  0  0  -0.339917  -0.282147  0  3.531565  0
N  N85  1  0.10962007  0.87648342  0.37915637  1  0  -0.379899  0  3.286919  0  0  -0.321931  0  3.563531  0  0  -0.33985  -0.282043  0  3.531638  0
N  N86  1  0.43066747  0.81916039  0.83495831  1  0  -0.357896  0  3.222445  0  0  -0.306287  0  3.500915  0  0  -0.33755  -0.273116  0  3.471358  0
N  N87  1  0.56932533  0.18084098  0.16503980  1  0  -0.357821  0  3.222792  0  0  -0.30615  0  3.50113  0  0  -0.337529  -0.272968  0  3.471573  0
N  N88  1  0.35383800  0.57637976  0.68421030  1  0  -0.340378  0  3.280857  0  0  -0.291263  0  3.560106  0  0  -0.324986  -0.260991  0  3.526615  0
N  N89  1  0.64616962  0.42362532  0.31579035  1  0  -0.340299  0  3.280824  0  0  -0.291212  0  3.560094  0  0  -0.324996  -0.260942  0  3.526604  0
N  N90  1  0.09589623  0.65726265  0.73199407  1  0  -0.325272  0  3.226125  0  0  -0.277736  0  3.506754  0  0  -0.31776  -0.249291  0  3.476297  0
N  N91  1  0.90410749  0.34273717  0.26800937  1  0  -0.325351  0  3.226108  0  0  -0.277794  0  3.506666  0  0  -0.317779  -0.249344  0  3.476206  0
O  O92  1  0.37418998  0.03914445  0.55151056  1  0  -0.683193  0  2.084926  0  0  -0.634867  0  2.340043  0  0  -0.341369  -0.583593  0  2.361516  0
O  O93  1  0.62580548  0.96085438  0.44849160  1  0  -0.683246  0  2.084815  0  0  -0.634917  0  2.339966  0  0  -0.341367  -0.583645  0  2.36145  0
O  O94  1  0.50797061  0.88037018  0.22097417  1  0  -0.641203  0  2.034319  0  0  -0.600043  0  2.27247  0  0  -0.336809  -0.546954  0  2.285122  0
O  O95  1  0.49202923  0.11964621  0.77902339  1  0  -0.641256  0  2.034144  0  0  -0.600125  0  2.272327  0  0  -0.336873  -0.54704  0  2.284984  0
O  O96  1  0.20942266  0.92648315  0.65714879  1  0  -0.604038  0  2.028857  0  0  -0.564597  0  2.273396  0  0  -0.321104  -0.516333  0  2.289831  0
O  O97  1  0.79057163  0.07351564  0.34285169  1  0  -0.604087  0  2.028852  0  0  -0.564632  0  2.273418  0  0  -0.321131  -0.51637  0  2.28986  0
O  O98  1  0.26357323  0.84506386  0.13647889  1  0  -0.629234  0  1.92987  0  0  -0.607435  0  2.14675  0  0  -0.334145  -0.566038  0  2.159287  0
O  O99  1  0.73642386  0.15493669  0.86352021  1  0  -0.629361  0  1.929587  0  0  -0.607564  0  2.146454  0  0  -0.334247  -0.566163  0  2.158995  0
