# generated using pymatgen
data_YbH6C9O7
_symmetry_space_group_name_H-M   'P 1'
_cell_length_a   6.95306221
_cell_length_b   7.57129756
_cell_length_c   10.21017108
_cell_angle_alpha   75.71317679
_cell_angle_beta   71.07044983
_cell_angle_gamma   88.50221715
_symmetry_Int_Tables_number   1
_chemical_formula_structural   YbH6C9O7
_chemical_formula_sum   'Yb2 H12 C18 O14'
_cell_volume   491.85459268
_cell_formula_units_Z   2
loop_
 _symmetry_equiv_pos_site_id
 _symmetry_equiv_pos_as_xyz
  1  'x, y, z'
loop_
 _atom_site_type_symbol
 _atom_site_label
 _atom_site_symmetry_multiplicity
 _atom_site_fract_x
 _atom_site_fract_y
 _atom_site_fract_z
 _atom_site_occupancy
 _atom_site_hle17_bader_spin_density
 _atom_site_hle17_ddec_charge
 _atom_site_hle17_ddec_spin_density
 _atom_site_hle17_ddec_sum_bond_order
 _atom_site_hle17_magmom
 _atom_site_hse06_10hf_bader_spin_density
 _atom_site_hse06_10hf_ddec_charge
 _atom_site_hse06_10hf_ddec_spin_density
 _atom_site_hse06_10hf_ddec_sum_bond_order
 _atom_site_hse06_10hf_magmom
 _atom_site_hse06_bader_spin_density
 _atom_site_hse06_ddec_charge
 _atom_site_hse06_ddec_spin_density
 _atom_site_hse06_ddec_sum_bond_order
 _atom_site_hse06_magmom
 _atom_site_pbe_bader_spin_density
 _atom_site_pbe_cm5_charge
 _atom_site_pbe_ddec_charge
 _atom_site_pbe_ddec_spin_density
 _atom_site_pbe_ddec_sum_bond_order
 _atom_site_pbe_magmom
Yb  Yb0  1  0.30664022  0.21813228  0.01867152  1  0  2.198381  0  1.798517  0  0  2.134444  0  2.12277  0  0  2.192886  0  2.072476  0  0  1.607828  2.099751  0  2.151793  0
Yb  Yb1  1  0.69336580  0.78186567  0.98132832  1  0  2.198446  0  1.798411  0  0  2.134462  0  2.122718  0  0  2.19291  0  2.072423  0  0  1.60779  2.09977  0  2.15174  0
H  H2  1  0.18034199  0.14583949  0.60228745  1  0  0.102081  0  0.963685  0  0  0.110801  0  1.027099  0  0  0.113934  0  1.026094  0  0  0.105727  0.10861  0  1.027712  0
H  H3  1  0.81964954  0.85415870  0.39771561  1  0  0.102103  0  0.963654  0  0  0.110808  0  1.027081  0  0  0.113955  0  1.026057  0  0  0.105732  0.108614  0  1.027702  0
H  H4  1  0.71256999  0.87038444  0.65058401  1  0  0.102235  0  0.982335  0  0  0.107201  0  1.05193  0  0  0.111073  0  1.049494  0  0  0.108983  0.104045  0  1.0544  0
H  H5  1  0.28742492  0.12961411  0.34941798  1  0  0.102256  0  0.982307  0  0  0.107217  0  1.051913  0  0  0.111095  0  1.049462  0  0  0.10897  0.104062  0  1.05438  0
H  H6  1  0.69086401  0.28931305  0.59388649  1  0  0.096629  0  0.97121  0  0  0.105711  0  1.032594  0  0  0.108168  0  1.032386  0  0  0.10508  0.104245  0  1.032367  0
H  H7  1  0.30913087  0.71068917  0.40611230  1  0  0.096619  0  0.971322  0  0  0.105724  0  1.032684  0  0  0.108165  0  1.032495  0  0  0.10509  0.104265  0  1.032451  0
H  H8  1  0.06310164  0.69429993  0.64853510  1  0  0.113091  0  0.948956  0  0  0.120876  0  1.011056  0  0  0.124374  0  1.00948  0  0  0.112325  0.118461  0  1.012199  0
H  H9  1  0.93689472  0.30570098  0.35146368  1  0  0.113086  0  0.948898  0  0  0.120885  0  1.010994  0  0  0.124382  0  1.009419  0  0  0.112348  0.118472  0  1.012134  0
H  H10  1  0.99687960  0.91733852  0.16229241  1  0  0.456192  0  0.834897  0  0  0.427687  0  0.893561  0  0  0.439125  0  0.876978  0  0  0.308291  0.42015  0  0.904551  0
H  H11  1  0.00311910  0.08266337  0.83770745  1  0  0.456214  0  0.834858  0  0  0.427709  0  0.89352  0  0  0.439148  0  0.876936  0  0  0.308295  0.420172  0  0.90451  0
H  H12  1  0.21900599  0.84507498  0.16170125  1  0  0.43505  0  0.870712  0  0  0.403655  0  0.93556  0  0  0.414709  0  0.919732  0  0  0.301836  0.39628  0  0.946205  0
H  H13  1  0.78099033  0.15492725  0.83829754  1  0  0.434999  0  0.870801  0  0  0.403599  0  0.935657  0  0  0.414654  0  0.919828  0  0  0.301804  0.396221  0  0.946306  0
C  C14  1  0.38184043  0.02640321  0.79288221  1  0  0.72312  0  3.816663  0  0  0.669556  0  4.120836  0  0  0.708327  0  4.106159  0  0  0.232767  0.644526  0  4.130026  0
C  C15  1  0.61815538  0.97359632  0.20712085  1  0  0.723228  0  3.816588  0  0  0.669631  0  4.120747  0  0  0.708404  0  4.106066  0  0  0.232792  0.644601  0  4.12994  0
C  C16  1  0.43920870  0.00771379  0.64343964  1  0  -0.054064  0  3.71211  0  0  -0.031249  0  3.942665  0  0  -0.036594  0  3.960904  0  0  -0.005116  -0.02757  0  3.929787  0
C  C17  1  0.56078526  0.99228274  0.35656449  1  0  -0.054254  0  3.71231  0  0  -0.031306  0  3.942688  0  0  -0.036662  0  3.960946  0  0  -0.005156  -0.027627  0  3.929811  0
C  C18  1  0.31992360  0.08150159  0.55773754  1  0  -0.057443  0  3.691857  0  0  -0.07943  0  3.935093  0  0  -0.080097  0  3.955075  0  0  -0.075001  -0.078332  0  3.921024  0
C  C19  1  0.68006837  0.91849592  0.44226766  1  0  -0.057413  0  3.691859  0  0  -0.07942  0  3.935054  0  0  -0.080096  0  3.955032  0  0  -0.075004  -0.078323  0  3.920982  0
C  C20  1  0.61995929  0.92684317  0.58431097  1  0  -0.055704  0  3.694099  0  0  -0.078811  0  3.94019  0  0  -0.07964  0  3.959717  0  0  -0.073013  -0.077925  0  3.926829  0
C  C21  1  0.38003611  0.07315337  0.41569316  1  0  -0.055672  0  3.694203  0  0  -0.078816  0  3.940266  0  0  -0.079642  0  3.959791  0  0  -0.072958  -0.07793  0  3.926908  0
C  C22  1  0.71447803  0.47834014  0.78242999  1  0  0.754988  0  3.787198  0  0  0.708473  0  4.072412  0  0  0.747173  0  4.057225  0  0  0.253521  0.683147  0  4.08189  0
C  C23  1  0.28552042  0.52165348  0.21757092  1  0  0.75505  0  3.787619  0  0  0.708569  0  4.072751  0  0  0.747274  0  4.057551  0  0  0.253526  0.683245  0  4.082233  0
C  C24  1  0.86163816  0.49020887  0.63625592  1  0  -0.07544  0  3.734406  0  0  -0.053829  0  3.962169  0  0  -0.060277  0  3.982836  0  0  -0.010789  -0.048658  0  3.947177  0
C  C25  1  0.13835677  0.50979203  0.36374286  1  0  -0.075422  0  3.73449  0  0  -0.053811  0  3.962254  0  0  -0.060266  0  3.98292  0  0  -0.010734  -0.048639  0  3.947263  0
C  C26  1  0.82712399  0.38049988  0.55270029  1  0  -0.057159  0  3.71036  0  0  -0.077513  0  3.953296  0  0  -0.077638  0  3.972819  0  0  -0.074971  -0.077515  0  3.939596  0
C  C27  1  0.17287026  0.61950596  0.44729958  1  0  -0.057131  0  3.710433  0  0  -0.077519  0  3.953367  0  0  -0.077628  0  3.972898  0  0  -0.074976  -0.077529  0  3.939663  0
C  C28  1  0.03535232  0.61040153  0.58292543  1  0  -0.060383  0  3.696211  0  0  -0.081361  0  3.940546  0  0  -0.082048  0  3.959809  0  0  -0.073811  -0.080388  0  3.92712  0
C  C29  1  0.96464243  0.38960465  0.41707336  1  0  -0.060387  0  3.696261  0  0  -0.081396  0  3.940621  0  0  -0.082085  0  3.9599  0  0  -0.073887  -0.080421  0  3.927188  0
C  C30  1  0.91674977  0.43378680  0.06069803  1  0  0.557034  0  3.93803  0  0  0.515415  0  4.241019  0  0  0.547204  0  4.231571  0  0  0.207492  0.494772  0  4.247373  0
C  C31  1  0.08327916  0.56621989  0.93929539  1  0  0.557077  0  3.938276  0  0  0.515364  0  4.24132  0  0  0.547155  0  4.231874  0  0  0.20753  0.494721  0  4.247668  0
O  O32  1  0.47895379  0.94979700  0.87593422  1  0  -0.761601  0  2.123174  0  0  -0.722306  0  2.392379  0  0  -0.752479  0  2.383272  0  0  -0.403318  -0.704673  0  2.401275  0
O  O33  1  0.52104156  0.05020086  0.12406991  1  0  -0.761616  0  2.123208  0  0  -0.722308  0  2.392386  0  0  -0.752474  0  2.383266  0  0  -0.403325  -0.704675  0  2.401286  0
O  O34  1  0.24103881  0.13393692  0.83430000  1  0  -0.732103  0  2.044606  0  0  -0.684447  0  2.28421  0  0  -0.712087  0  2.272674  0  0  -0.391342  -0.666678  0  2.292043  0
O  O35  1  0.75895798  0.86606094  0.16570413  1  0  -0.732111  0  2.044498  0  0  -0.684458  0  2.284126  0  0  -0.712099  0  2.272588  0  0  -0.391318  -0.66669  0  2.291959  0
O  O36  1  0.61620533  0.32440753  0.85229641  1  0  -0.739466  0  2.091971  0  0  -0.689103  0  2.335844  0  0  -0.717599  0  2.323892  0  0  -0.391367  -0.671197  0  2.344313  0
O  O37  1  0.38379717  0.67558151  0.14770235  1  0  -0.739497  0  2.092064  0  0  -0.689147  0  2.335953  0  0  -0.717648  0  2.324  0  0  -0.391346  -0.671236  0  2.344399  0
O  O38  1  0.69692147  0.61781172  0.83117861  1  0  -0.73618  0  2.146254  0  0  -0.701291  0  2.416347  0  0  -0.730559  0  2.40481  0  0  -0.412532  -0.683316  0  2.425325  0
O  O39  1  0.30307775  0.38218684  0.16882338  1  0  -0.736214  0  2.146528  0  0  -0.701349  0  2.416614  0  0  -0.730616  0  2.405069  0  0  -0.412546  -0.683375  0  2.425592  0
O  O40  1  0.96672295  0.27185506  0.10021630  1  0  -0.650698  0  2.053283  0  0  -0.612471  0  2.298403  0  0  -0.639137  0  2.290996  0  0  -0.386545  -0.59504  0  2.303428  0
O  O41  1  0.03329801  0.72815270  0.89976964  1  0  -0.650743  0  2.053213  0  0  -0.612465  0  2.298333  0  0  -0.639136  0  2.290932  0  0  -0.386488  -0.595032  0  2.303355  0
O  O42  1  0.74708756  0.49827169  0.10987942  1  0  -0.634732  0  2.06001  0  0  -0.604087  0  2.302189  0  0  -0.62869  0  2.294582  0  0  -0.375013  -0.588406  0  2.307784  0
O  O43  1  0.25293186  0.50173636  0.89010973  1  0  -0.634608  0  2.060173  0  0  -0.603943  0  2.302369  0  0  -0.628543  0  2.29476  0  0  -0.375001  -0.588263  0  2.307963  0
O  O44  1  0.13487644  0.95335944  0.15972055  1  0  -0.923926  0  1.902049  0  0  -0.887991  0  2.102214  0  0  -0.910203  0  2.069859  0  0  -0.671095  -0.874361  0  2.12458  0
O  O45  1  0.86512086  0.04664112  0.84027930  1  0  -0.923911  0  1.902061  0  0  -0.887958  0  2.102219  0  0  -0.910173  0  2.069859  0  0  -0.671075  -0.874328  0  2.124586  0
