# generated using pymatgen
data_AgH15C17SN4O3
_symmetry_space_group_name_H-M   'P 1'
_cell_length_a   8.86089164
_cell_length_b   9.69933662
_cell_length_c   10.24337170
_cell_angle_alpha   74.87858412
_cell_angle_beta   74.52655876
_cell_angle_gamma   88.39110022
_symmetry_Int_Tables_number   1
_chemical_formula_structural   AgH15C17SN4O3
_chemical_formula_sum   'Ag2 H30 C34 S2 N8 O6'
_cell_volume   818.26115386
_cell_formula_units_Z   2
loop_
 _symmetry_equiv_pos_site_id
 _symmetry_equiv_pos_as_xyz
  1  'x, y, z'
loop_
 _atom_site_type_symbol
 _atom_site_label
 _atom_site_symmetry_multiplicity
 _atom_site_fract_x
 _atom_site_fract_y
 _atom_site_fract_z
 _atom_site_occupancy
 _atom_site_pbe_bader_spin_density
 _atom_site_pbe_cm5_charge
 _atom_site_pbe_ddec_charge
 _atom_site_pbe_ddec_spin_density
 _atom_site_pbe_ddec_sum_bond_order
 _atom_site_pbe_magmom
Ag  Ag0  1  0.38819325  0.11647415  0.07180534  1  0  0.479651  0.359243  0  1.899222  0
Ag  Ag1  1  0.61180786  0.88352684  0.92819416  1  0  0.479665  0.359229  0  1.899222  0
H  H2  1  0.27579470  0.03556420  0.85101714  1  0  0.114503  0.087251  0  1.051883  0
H  H3  1  0.72420518  0.96443573  0.14898291  1  0  0.114498  0.087266  0  1.051893  0
H  H4  1  0.16275440  0.86960233  0.28267631  1  0  0.120189  0.096854  0  1.007774  0
H  H5  1  0.83724676  0.13039973  0.71732194  1  0  0.120191  0.096846  0  1.007785  0
H  H6  1  0.08188545  0.86691433  0.82667157  1  0  0.115288  0.128911  0  1.003024  0
H  H7  1  0.91811439  0.13308453  0.17332876  1  0  0.115282  0.128901  0  1.003044  0
H  H8  1  0.95837630  0.69800172  0.27763632  1  0  0.112096  0.122503  0  1.044987  0
H  H9  1  0.04162364  0.30199928  0.72236443  1  0  0.112103  0.122519  0  1.044953  0
H  H10  1  0.62034028  0.54489449  0.46106290  1  0  0.104119  0.10788  0  1.038507  0
H  H11  1  0.37966184  0.45510330  0.53893815  1  0  0.104101  0.107844  0  1.038548  0
H  H12  1  0.65968057  0.99932198  0.40921784  1  0  0.104189  0.11472  0  1.006821  0
H  H13  1  0.34031805  0.00067580  0.59078206  1  0  0.104187  0.114726  0  1.006806  0
H  H14  1  0.82535145  0.50700103  0.58396442  1  0  0.10167  0.115842  0  1.000341  0
H  H15  1  0.17465077  0.49299891  0.41603607  1  0  0.10168  0.115864  0  1.000333  0
H  H16  1  0.86857301  0.96140684  0.53280745  1  0  0.09841  0.102477  0  1.017282  0
H  H17  1  0.13142688  0.03859308  0.46719260  1  0  0.098401  0.102459  0  1.017286  0
H  H18  1  0.01331929  0.59578321  0.67759934  1  0  0.086421  0.119933  0  1.03829  0
H  H19  1  0.98668065  0.40421778  0.32239945  1  0  0.086427  0.119937  0  1.038284  0
H  H20  1  0.95592366  0.75129925  0.73550343  1  0  0.081619  0.105193  0  1.066007  0
H  H21  1  0.04407745  0.24870174  0.26449510  1  0  0.081616  0.105188  0  1.066005  0
H  H22  1  0.10282994  0.76298759  0.57497566  1  0  0.091484  0.14673  0  1.014988  0
H  H23  1  0.89717116  0.23701341  0.42502385  1  0  0.091482  0.14674  0  1.01501  0
H  H24  1  0.79152861  0.55357573  0.88563433  1  0  0.112954  0.12298  0  1.036128  0
H  H25  1  0.20847131  0.44642528  0.11436739  1  0  0.112953  0.122981  0  1.036124  0
H  H26  1  0.66596789  0.37275628  0.33593261  1  0  0.117831  0.140019  0  1.02462  0
H  H27  1  0.33403204  0.62724472  0.66406814  1  0  0.117841  0.140042  0  1.024591  0
H  H28  1  0.60233597  0.37038066  0.87274432  1  0  0.118549  0.108398  0  1.013629  0
H  H29  1  0.39766391  0.62961926  0.12725573  1  0  0.118572  0.108485  0  1.013602  0
H  H30  1  0.48258678  0.19995818  0.30354161  1  0  0.116869  0.100014  0  1.035165  0
H  H31  1  0.51741423  0.80004068  0.69645747  1  0  0.116872  0.100042  0  1.035123  0
C  C32  1  0.20386189  0.95847915  0.94205760  1  0  0.0408  0.087031  0  3.947277  0
C  C33  1  0.79613683  0.04152078  0.05794272  1  0  0.040777  0.086922  0  3.947364  0
C  C34  1  0.13904744  0.86642795  0.18444391  1  0  0.048821  0.094566  0  3.912626  0
C  C35  1  0.86095249  0.13357304  0.81555586  1  0  0.0488  0.094558  0  3.912591  0
C  C36  1  0.62867916  0.77538779  0.42435767  1  0  -0.028087  -0.106998  0  3.992034  0
C  C37  1  0.37132185  0.22461106  0.57564142  1  0  -0.028106  -0.107027  0  3.99203  0
C  C38  1  0.09688120  0.86465833  0.92922060  1  0  -0.074905  -0.180394  0  3.921003  0
C  C39  1  0.90311756  0.13534267  0.07078041  1  0  -0.07492  -0.18038  0  3.921067  0
C  C40  1  0.02868866  0.76956850  0.18107658  1  0  -0.07116  -0.176375  0  3.888952  0
C  C41  1  0.97131128  0.23043249  0.81892319  1  0  -0.071172  -0.176399  0  3.888857  0
C  C42  1  0.67519435  0.63718108  0.47466908  1  0  -0.0909  -0.091996  0  4.010969  0
C  C43  1  0.32480544  0.36281671  0.52533154  1  0  -0.090849  -0.091908  0  4.011027  0
C  C44  1  0.69957044  0.89223664  0.44454211  1  0  -0.089876  -0.088718  0  4.01172  0
C  C45  1  0.30042823  0.10776221  0.55545653  1  0  -0.089933  -0.088824  0  4.011711  0
C  C46  1  0.00734206  0.76820033  0.05036565  1  0  0.105817  0.195491  0  4.026599  0
C  C47  1  0.99265670  0.23180067  0.94963537  1  0  0.105836  0.195512  0  4.0266  0
C  C48  1  0.79215602  0.61610615  0.54482862  1  0  -0.092939  -0.144596  0  3.942072  0
C  C49  1  0.20784498  0.38389271  0.45517242  1  0  -0.09295  -0.144622  0  3.942149  0
C  C50  1  0.81674085  0.86977009  0.51475113  1  0  -0.098427  -0.151445  0  3.964573  0
C  C51  1  0.18325900  0.13022876  0.48524823  1  0  -0.098368  -0.151328  0  3.96447  0
C  C52  1  0.86547105  0.73196015  0.56577252  1  0  -0.010332  0.169838  0  3.975789  0
C  C53  1  0.13453006  0.26804084  0.43422601  1  0  -0.010346  0.169797  0  3.97584  0
C  C54  1  0.99064660  0.70943093  0.64225522  1  0  -0.250364  -0.429999  0  3.957647  0
C  C55  1  0.00935446  0.29056900  0.35774457  1  0  -0.250359  -0.43  0  3.95769  0
C  C56  1  0.74053674  0.47849953  0.11232289  1  0  0.107038  0.200574  0  4.002703  0
C  C57  1  0.25946319  0.52150146  0.88767688  1  0  0.107047  0.200637  0  4.0026  0
C  C58  1  0.72359331  0.47770876  0.98006154  1  0  -0.075664  -0.188583  0  3.927879  0
C  C59  1  0.27640545  0.52229224  0.01993947  1  0  -0.075682  -0.188601  0  3.927736  0
C  C60  1  0.65391858  0.37749665  0.23162535  1  0  -0.065468  -0.162774  0  3.857775  0
C  C61  1  0.34608130  0.62250329  0.76837568  1  0  -0.065473  -0.162788  0  3.857756  0
C  C62  1  0.62063694  0.37702282  0.97217996  1  0  0.03896  0.081527  0  3.921944  0
C  C63  1  0.37936417  0.62297819  0.02782052  1  0  0.038952  0.081423  0  3.921968  0
C  C64  1  0.55194673  0.28133222  0.21459281  1  0  0.044453  0.085945  0  3.904817  0
C  C65  1  0.44805432  0.71866771  0.78540698  1  0  0.044423  0.085868  0  3.904797  0
S  S66  1  0.47723376  0.79916502  0.33606248  1  0  0.485475  1.15259  0  6.243062  0
S  S67  1  0.52276603  0.20083277  0.66393813  1  0  0.485497  1.15266  0  6.242854  0
N  N68  1  0.22472445  0.96028588  0.06721074  1  0  -0.34788  -0.196361  0  3.627893  0
N  N69  1  0.77527544  0.03971404  0.93278834  1  0  -0.347839  -0.196278  0  3.627894  0
N  N70  1  0.53576218  0.28024182  0.08755668  1  0  -0.342732  -0.178458  0  3.589672  0
N  N71  1  0.46423770  0.71975811  0.91244434  1  0  -0.342707  -0.178379  0  3.589612  0
N  N72  1  0.89729475  0.67800031  0.03022274  1  0  -0.128927  -0.117889  0  3.263819  0
N  N73  1  0.10270396  0.32199962  0.96977758  1  0  -0.128874  -0.117818  0  3.263876  0
N  N74  1  0.84722112  0.57094005  0.13349823  1  0  -0.114714  -0.075412  0  3.213937  0
N  N75  1  0.15277642  0.42905988  0.86650332  1  0  -0.114767  -0.0755  0  3.213999  0
O  O76  1  0.44731576  0.95286164  0.30720356  1  0  -0.357721  -0.631693  0  2.316736  0
O  O77  1  0.55268638  0.04713615  0.69279456  1  0  -0.357699  -0.631699  0  2.316693  0
O  O78  1  0.34209802  0.70837199  0.43228096  1  0  -0.346711  -0.600429  0  2.190821  0
O  O79  1  0.65790068  0.29162795  0.56772131  1  0  -0.346713  -0.600412  0  2.190719  0
O  O80  1  0.54366786  0.75228672  0.20719607  1  0  -0.360407  -0.624407  0  2.277164  0
O  O81  1  0.45632843  0.24771106  0.79280338  1  0  -0.360441  -0.624463  0  2.277108  0
