# generated using pymatgen
data_SrH18(CO)10
_symmetry_space_group_name_H-M   'P 1'
_cell_length_a   6.93046588
_cell_length_b   10.24561595
_cell_length_c   11.44163468
_cell_angle_alpha   105.19795364
_cell_angle_beta   100.46056554
_cell_angle_gamma   96.81282718
_symmetry_Int_Tables_number   1
_chemical_formula_structural   SrH18(CO)10
_chemical_formula_sum   'Sr2 H36 C20 O20'
_cell_volume   759.07109820
_cell_formula_units_Z   2
loop_
 _symmetry_equiv_pos_site_id
 _symmetry_equiv_pos_as_xyz
  1  'x, y, z'
loop_
 _atom_site_type_symbol
 _atom_site_label
 _atom_site_symmetry_multiplicity
 _atom_site_fract_x
 _atom_site_fract_y
 _atom_site_fract_z
 _atom_site_occupancy
 _atom_site_hle17_bader_spin_density
 _atom_site_hle17_ddec_charge
 _atom_site_hle17_ddec_spin_density
 _atom_site_hle17_ddec_sum_bond_order
 _atom_site_hle17_magmom
 _atom_site_hse06_10hf_bader_spin_density
 _atom_site_hse06_10hf_ddec_charge
 _atom_site_hse06_10hf_ddec_spin_density
 _atom_site_hse06_10hf_ddec_sum_bond_order
 _atom_site_hse06_10hf_magmom
 _atom_site_hse06_bader_spin_density
 _atom_site_hse06_ddec_charge
 _atom_site_hse06_ddec_spin_density
 _atom_site_hse06_ddec_sum_bond_order
 _atom_site_hse06_magmom
 _atom_site_pbe_bader_spin_density
 _atom_site_pbe_cm5_charge
 _atom_site_pbe_ddec_charge
 _atom_site_pbe_ddec_spin_density
 _atom_site_pbe_ddec_sum_bond_order
 _atom_site_pbe_magmom
Sr  Sr0  1  0.22723840  0.53505356  0.40368062  1  0  1.615363  0  1.12208  0  0  1.464336  0  1.506838  0  0  1.504292  0  1.459699  0  0  0.943976  1.434962  0  1.54027  0
Sr  Sr1  1  0.77275395  0.46494765  0.59632053  1  0  1.615403  0  1.122104  0  0  1.464351  0  1.506898  0  0  1.504318  0  1.459752  0  0  0.944008  1.434985  0  1.54033  0
H  H2  1  0.11035070  0.31476588  0.74262214  1  0  0.103504  0  0.95859  0  0  0.115482  0  1.023772  0  0  0.118318  0  1.022187  0  0  0.10154  0.11334  0  1.025096  0
H  H3  1  0.88964390  0.68522715  0.25738092  1  0  0.1036  0  0.958528  0  0  0.115519  0  1.023739  0  0  0.118355  0  1.022155  0  0  0.101526  0.113385  0  1.025063  0
H  H4  1  0.21962922  0.18790407  0.65319872  1  0  0.101696  0  0.941369  0  0  0.117075  0  1.004024  0  0  0.118769  0  1.003746  0  0  0.099942  0.11584  0  1.004309  0
H  H5  1  0.78037013  0.81208995  0.34680074  1  0  0.101725  0  0.941458  0  0  0.117087  0  1.004081  0  0  0.118781  0  1.003803  0  0  0.099962  0.115859  0  1.004369  0
H  H6  1  0.45912495  0.44381112  0.85699892  1  0  0.066356  0  0.925243  0  0  0.087391  0  0.980418  0  0  0.087965  0  0.981104  0  0  0.094664  0.08689  0  0.980059  0
H  H7  1  0.54087350  0.55618492  0.14299828  1  0  0.066392  0  0.925186  0  0  0.087384  0  0.980404  0  0  0.087954  0  0.98109  0  0  0.094646  0.086884  0  0.980046  0
H  H8  1  0.55871799  0.31539029  0.76269904  1  0  0.075919  0  0.976904  0  0  0.092738  0  1.040719  0  0  0.09413  0  1.040612  0  0  0.10316  0.091662  0  1.040995  0
H  H9  1  0.44127781  0.68460677  0.23729720  1  0  0.075915  0  0.976931  0  0  0.092725  0  1.040751  0  0  0.094114  0  1.040644  0  0  0.103133  0.09165  0  1.041027  0
H  H10  1  0.30984171  0.26895590  0.94974094  1  0  0.113921  0  0.903014  0  0  0.133379  0  0.952277  0  0  0.135785  0  0.951295  0  0  0.109879  0.131619  0  0.953111  0
H  H11  1  0.69016310  0.73104222  0.05025922  1  0  0.113897  0  0.903056  0  0  0.133349  0  0.952324  0  0  0.135757  0  0.951326  0  0  0.109882  0.131571  0  0.953179  0
H  H12  1  0.39176135  0.13803589  0.84758166  1  0  0.108048  0  0.917439  0  0  0.1251  0  0.974243  0  0  0.127217  0  0.973378  0  0  0.106093  0.12355  0  0.974977  0
H  H13  1  0.60823908  0.86196222  0.15241711  1  0  0.10803  0  0.917451  0  0  0.125072  0  0.974266  0  0  0.127184  0  0.973405  0  0  0.106101  0.123524  0  0.974995  0
H  H14  1  0.75641782  0.22452581  0.13319185  1  0  0.391881  0  0.905898  0  0  0.358976  0  0.988401  0  0  0.37186  0  0.974688  0  0  0.299176  0.349933  0  0.997727  0
H  H15  1  0.24357893  0.77547540  0.86680981  1  0  0.391857  0  0.905929  0  0  0.358947  0  0.988442  0  0  0.371833  0  0.97473  0  0  0.299157  0.349903  0  0.99777  0
H  H16  1  0.32541782  0.86180367  0.58728236  1  0  0.406084  0  0.888632  0  0  0.376233  0  0.963816  0  0  0.38864  0  0.948089  0  0  0.306069  0.367591  0  0.972842  0
H  H17  1  0.67457902  0.13819750  0.41271493  1  0  0.406088  0  0.888628  0  0  0.37623  0  0.963811  0  0  0.388636  0  0.948091  0  0  0.306042  0.367589  0  0.972838  0
H  H18  1  0.02469679  0.00698189  0.37982221  1  0  0.111298  0  0.933586  0  0  0.125316  0  0.996029  0  0  0.1275  0  0.995512  0  0  0.105748  0.123673  0  0.99652  0
H  H19  1  0.97530440  0.99301931  0.62017822  1  0  0.111314  0  0.933575  0  0  0.125299  0  0.996016  0  0  0.127482  0  0.995499  0  0  0.105739  0.12366  0  0.996508  0
H  H20  1  0.25983722  0.11281893  0.43311086  1  0  0.117174  0  0.928016  0  0  0.131617  0  0.985021  0  0  0.133976  0  0.984975  0  0  0.110038  0.129882  0  0.985163  0
H  H21  1  0.74016237  0.88718739  0.56688879  1  0  0.117264  0  0.927948  0  0  0.131647  0  0.984976  0  0  0.134004  0  0.984934  0  0  0.110057  0.129914  0  0.985118  0
H  H22  1  0.15883866  0.87717506  0.18996651  1  0  0.075936  0  0.934135  0  0  0.093733  0  0.993433  0  0  0.094924  0  0.993642  0  0  0.09535  0.092851  0  0.993294  0
H  H23  1  0.84115398  0.12282716  0.81003315  1  0  0.075961  0  0.934157  0  0  0.093764  0  0.993446  0  0  0.094959  0  0.993652  0  0  0.09536  0.092882  0  0.993306  0
H  H24  1  0.35797083  0.01731678  0.23731513  1  0  0.066528  0  0.935212  0  0  0.085057  0  0.995211  0  0  0.086228  0  0.99507  0  0  0.092026  0.083998  0  0.995634  0
H  H25  1  0.64202669  0.98268131  0.76268155  1  0  0.066551  0  0.935286  0  0  0.085083  0  0.995274  0  0  0.086255  0  0.995139  0  0  0.092041  0.084025  0  0.995693  0
H  H26  1  0.91196948  0.02080607  0.15297853  1  0  0.092221  0  0.940132  0  0  0.106595  0  1.001894  0  0  0.108769  0  1.000724  0  0  0.095846  0.104958  0  1.002886  0
H  H27  1  0.08803062  0.97919609  0.84701588  1  0  0.092243  0  0.940098  0  0  0.106658  0  1.001849  0  0  0.108832  0  1.000675  0  0  0.095844  0.105025  0  1.002842  0
H  H28  1  0.10817352  0.06036799  0.08122127  1  0  0.107152  0  0.932853  0  0  0.124622  0  0.988555  0  0  0.126454  0  0.988003  0  0  0.105501  0.123254  0  0.989111  0
H  H29  1  0.89183413  0.93964144  0.91878266  1  0  0.107162  0  0.932709  0  0  0.124654  0  0.988448  0  0  0.126483  0  0.987902  0  0  0.105483  0.123289  0  0.989006  0
H  H30  1  0.98897101  0.44635724  0.11618606  1  0  0.423397  0  0.875949  0  0  0.390631  0  0.942342  0  0  0.401324  0  0.926534  0  0  0.292135  0.383038  0  0.953545  0
H  H31  1  0.01102948  0.55364083  0.88380922  1  0  0.423405  0  0.87595  0  0  0.390637  0  0.942335  0  0  0.401335  0  0.926526  0  0  0.292161  0.383042  0  0.953541  0
H  H32  1  0.15760467  0.56572884  0.12021790  1  0  0.423654  0  0.877496  0  0  0.392658  0  0.941953  0  0  0.402891  0  0.926726  0  0  0.294267  0.385432  0  0.952681  0
H  H33  1  0.84239989  0.43426825  0.87978112  1  0  0.423652  0  0.877485  0  0  0.39265  0  0.941955  0  0  0.402885  0  0.926726  0  0  0.294275  0.385429  0  0.952677  0
H  H34  1  0.25601160  0.72269202  0.67928171  1  0  0.432796  0  0.862878  0  0  0.401776  0  0.925496  0  0  0.411932  0  0.910715  0  0  0.313235  0.394578  0  0.935971  0
H  H35  1  0.74399466  0.27730611  0.32071950  1  0  0.432799  0  0.862868  0  0  0.401768  0  0.925508  0  0  0.411924  0  0.910727  0  0  0.313189  0.394568  0  0.935987  0
H  H36  1  0.49065549  0.73161004  0.67163487  1  0  0.446482  0  0.846602  0  0  0.410415  0  0.917544  0  0  0.421978  0  0.900717  0  0  0.310069  0.402204  0  0.929491  0
H  H37  1  0.50934867  0.26839114  0.32836416  1  0  0.446435  0  0.846668  0  0  0.410377  0  0.917596  0  0  0.421941  0  0.900769  0  0  0.310052  0.402167  0  0.929544  0
C  C38  1  0.24887671  0.37561487  0.60838146  1  0  0.748049  0  3.829354  0  0  0.702619  0  4.124787  0  0  0.736318  0  4.115738  0  0  0.229752  0.679772  0  4.130006  0
C  C39  1  0.75110668  0.62438021  0.39162074  1  0  0.747819  0  3.829768  0  0  0.702445  0  4.12507  0  0  0.736142  0  4.116023  0  0  0.229633  0.679609  0  4.130288  0
C  C40  1  0.24306284  0.29797737  0.70467480  1  0  -0.277345  0  3.660455  0  0  -0.313076  0  3.909526  0  0  -0.319158  0  3.917848  0  0  -0.163267  -0.308816  0  3.903775  0
C  C41  1  0.75693453  0.70202079  0.29532975  1  0  -0.277499  0  3.660767  0  0  -0.313128  0  3.909652  0  0  -0.319214  0  3.917968  0  0  -0.163273  -0.308897  0  3.903932  0
C  C42  1  0.43256678  0.33383930  0.80628143  1  0  -0.067234  0  3.715101  0  0  -0.113217  0  3.977718  0  0  -0.11275  0  3.99104  0  0  -0.166557  -0.113411  0  3.968537  0
C  C43  1  0.56743307  0.66615677  0.19371944  1  0  -0.067301  0  3.715177  0  0  -0.113271  0  3.977705  0  0  -0.11279  0  3.991002  0  0  -0.166531  -0.113463  0  3.96854  0
C  C44  1  0.42694395  0.24890266  0.89706800  1  0  -0.266309  0  3.679816  0  0  -0.307618  0  3.941675  0  0  -0.313781  0  3.950745  0  0  -0.155479  -0.303281  0  3.935268  0
C  C45  1  0.57306113  0.75109648  0.10293155  1  0  -0.266044  0  3.679825  0  0  -0.307372  0  3.941585  0  0  -0.313524  0  3.950632  0  0  -0.155467  -0.303024  0  3.935187  0
C  C46  1  0.62156381  0.27293913  0.99014200  1  0  0.722861  0  3.73496  0  0  0.671266  0  4.046563  0  0  0.703436  0  4.039137  0  0  0.244561  0.649396  0  4.05095  0
C  C47  1  0.37844149  0.72705484  0.00985379  1  0  0.722374  0  3.735402  0  0  0.670925  0  4.046797  0  0  0.703095  0  4.039367  0  0  0.244461  0.649048  0  4.051189  0
C  C48  1  0.25354535  0.90373835  0.43202900  1  0  0.723225  0  3.746416  0  0  0.673374  0  4.05463  0  0  0.706028  0  4.046233  0  0  0.244723  0.651077  0  4.059846  0
C  C49  1  0.74645888  0.09627522  0.56797895  1  0  0.723036  0  3.746814  0  0  0.673197  0  4.054926  0  0  0.705852  0  4.046527  0  0  0.244601  0.650908  0  4.060141  0
C  C50  1  0.18272987  0.01049035  0.37417997  1  0  -0.280995  0  3.671778  0  0  -0.318223  0  3.925199  0  0  -0.325196  0  3.934452  0  0  -0.162976  -0.313297  0  3.918701  0
C  C51  1  0.81727331  0.98951290  0.62582116  1  0  -0.281049  0  3.671863  0  0  -0.318163  0  3.925159  0  0  -0.325134  0  3.934413  0  0  -0.162968  -0.313262  0  3.918692  0
C  C52  1  0.20150400  0.98732192  0.23966853  1  0  -0.053227  0  3.682916  0  0  -0.097302  0  3.945202  0  0  -0.096827  0  3.958484  0  0  -0.163076  -0.097369  0  3.935853  0
C  C53  1  0.79849189  0.01268130  0.76032911  1  0  -0.053335  0  3.683128  0  0  -0.097392  0  3.945403  0  0  -0.096929  0  3.958694  0  0  -0.16314  -0.097451  0  3.936058  0
C  C54  1  0.07023097  0.06667140  0.17166514  1  0  -0.275465  0  3.684245  0  0  -0.315216  0  3.940441  0  0  -0.320629  0  3.94851  0  0  -0.164436  -0.311508  0  3.934899  0
C  C55  1  0.92977081  0.93333182  0.82833232  1  0  -0.275491  0  3.683995  0  0  -0.315403  0  3.940407  0  0  -0.320811  0  3.948475  0  0  -0.164448  -0.311711  0  3.934873  0
C  C56  1  0.09546976  0.21833075  0.23958384  1  0  0.725712  0  3.805925  0  0  0.676183  0  4.106553  0  0  0.709015  0  4.099304  0  0  0.227001  0.653903  0  4.110644  0
C  C57  1  0.90451912  0.78166842  0.76041731  1  0  0.725843  0  3.805836  0  0  0.676311  0  4.10651  0  0  0.709139  0  4.09926  0  0  0.227028  0.654046  0  4.110586  0
O  O58  1  0.08392059  0.38930808  0.54573562  1  0  -0.772171  0  1.975829  0  0  -0.708542  0  2.229117  0  0  -0.735806  0  2.218489  0  0  -0.419405  -0.689223  0  2.235796  0
O  O59  1  0.91608496  0.61069935  0.45427373  1  0  -0.772279  0  1.975448  0  0  -0.708662  0  2.228685  0  0  -0.735928  0  2.218055  0  0  -0.419511  -0.689346  0  2.235364  0
O  O60  1  0.41463086  0.42322260  0.58988559  1  0  -0.749637  0  1.986972  0  0  -0.684082  0  2.239681  0  0  -0.710933  0  2.228491  0  0  -0.402788  -0.665146  0  2.24679  0
O  O61  1  0.58538001  0.57677038  0.41011325  1  0  -0.749248  0  1.987488  0  0  -0.683727  0  2.240141  0  0  -0.710574  0  2.228954  0  0  -0.402571  -0.664796  0  2.247243  0
O  O62  1  0.77167886  0.35393687  0.99226849  1  0  -0.598997  0  1.991368  0  0  -0.537523  0  2.203463  0  0  -0.560832  0  2.193292  0  0  -0.278784  -0.521465  0  2.210142  0
O  O63  1  0.22833464  0.64604889  0.00772640  1  0  -0.598836  0  1.991669  0  0  -0.537435  0  2.203692  0  0  -0.560745  0  2.193528  0  0  -0.278735  -0.521357  0  2.210364  0
O  O64  1  0.61967485  0.19984868  0.06975975  1  0  -0.556056  0  2.045929  0  0  -0.509249  0  2.261202  0  0  -0.531296  0  2.246171  0  0  -0.338462  -0.493914  0  2.270949  0
O  O65  1  0.38032979  0.80015458  0.93024155  1  0  -0.555914  0  2.045932  0  0  -0.509157  0  2.261153  0  0  -0.531207  0  2.246125  0  0  -0.33845  -0.493821  0  2.270904  0
O  O66  1  0.26557798  0.78717108  0.37151823  1  0  -0.608465  0  1.990032  0  0  -0.554706  0  2.223585  0  0  -0.577497  0  2.215352  0  0  -0.304937  -0.538942  0  2.228831  0
O  O67  1  0.73442916  0.21283008  0.62847852  1  0  -0.608281  0  1.990476  0  0  -0.554562  0  2.22403  0  0  -0.577347  0  2.215795  0  0  -0.304854  -0.538798  0  2.229275  0
O  O68  1  0.29446547  0.94495316  0.55603133  1  0  -0.577763  0  2.053495  0  0  -0.525664  0  2.271449  0  0  -0.548328  0  2.255172  0  0  -0.33748  -0.509925  0  2.280806  0
O  O69  1  0.70553348  0.05504495  0.44396727  1  0  -0.577856  0  2.053488  0  0  -0.525662  0  2.2713  0  0  -0.548329  0  2.255029  0  0  -0.337429  -0.509919  0  2.280653  0
O  O70  1  0.93965826  0.27583216  0.23934914  1  0  -0.690209  0  2.017244  0  0  -0.622042  0  2.239002  0  0  -0.648477  0  2.228324  0  0  -0.317544  -0.603666  0  2.245759  0
O  O71  1  0.06034683  0.72417318  0.76065618  1  0  -0.690249  0  2.017075  0  0  -0.622082  0  2.238833  0  0  -0.648515  0  2.228152  0  0  -0.317538  -0.603709  0  2.245584  0
O  O72  1  0.26773156  0.28585774  0.29382404  1  0  -0.674656  0  1.999564  0  0  -0.609993  0  2.23183  0  0  -0.636254  0  2.221963  0  0  -0.336715  -0.591693  0  2.238139  0
O  O73  1  0.73226681  0.71414961  0.70617657  1  0  -0.674712  0  1.999773  0  0  -0.609991  0  2.232008  0  0  -0.636249  0  2.22214  0  0  -0.336682  -0.591698  0  2.238312  0
O  O74  1  0.10172397  0.51508666  0.17221503  1  0  -0.894207  0  1.820779  0  0  -0.84394  0  2.004933  0  0  -0.862671  0  1.972611  0  0  -0.639238  -0.830431  0  2.027492  0
O  O75  1  0.89827164  0.48491554  0.82778323  1  0  -0.894219  0  1.820783  0  0  -0.84393  0  2.004953  0  0  -0.862685  0  1.97263  0  0  -0.639275  -0.83042  0  2.027511  0
O  O76  1  0.35248599  0.73199366  0.62674167  1  0  -0.856503  0  1.894481  0  0  -0.79617  0  2.077717  0  0  -0.817307  0  2.045237  0  0  -0.573582  -0.781314  0  2.099993  0
O  O77  1  0.64751414  0.26800343  0.37325859  1  0  -0.856473  0  1.894548  0  0  -0.796148  0  2.077782  0  0  -0.817286  0  2.045305  0  0  -0.573534  -0.781292  0  2.100058  0
