# generated using pymatgen
data_CuH7C7N7O
_symmetry_space_group_name_H-M   'P 1'
_cell_length_a   8.09295960
_cell_length_b   10.50249302
_cell_length_c   11.14529380
_cell_angle_alpha   89.99974467
_cell_angle_beta   90.00033618
_cell_angle_gamma   100.01147553
_symmetry_Int_Tables_number   1
_chemical_formula_structural   CuH7C7N7O
_chemical_formula_sum   'Cu4 H28 C28 N28 O4'
_cell_volume   932.88349153
_cell_formula_units_Z   4
loop_
 _symmetry_equiv_pos_site_id
 _symmetry_equiv_pos_as_xyz
  1  'x, y, z'
loop_
 _atom_site_type_symbol
 _atom_site_label
 _atom_site_symmetry_multiplicity
 _atom_site_fract_x
 _atom_site_fract_y
 _atom_site_fract_z
 _atom_site_occupancy
 _atom_site_hle17_ddec_charge
 _atom_site_hle17_ddec_spin_density
 _atom_site_hle17_ddec_sum_bond_order
 _atom_site_hle17_magmom
 _atom_site_hse06_10hf_ddec_charge
 _atom_site_hse06_10hf_ddec_spin_density
 _atom_site_hse06_10hf_ddec_sum_bond_order
 _atom_site_hse06_10hf_magmom
 _atom_site_hse06_ddec_charge
 _atom_site_hse06_ddec_spin_density
 _atom_site_hse06_ddec_sum_bond_order
 _atom_site_hse06_magmom
 _atom_site_pbe_cm5_charge
 _atom_site_pbe_ddec_charge
 _atom_site_pbe_ddec_spin_density
 _atom_site_pbe_ddec_sum_bond_order
 _atom_site_pbe_magmom
Cu  Cu0  1  0.16012731  0.38243111  0.60007434  1  0.724274  -0.662463  1.998194  -0.444  0.693268  -0.773583  2.420879  -0.575  0.781837  -0.867861  2.354133  -0.67  0.759117  0.64408  -0.701653  2.464686  -0.51
Cu  Cu1  1  0.33987211  0.61756919  0.10007934  1  0.724298  0.662462  1.998081  0.444  0.693446  0.773609  2.420758  0.575  0.781977  0.867862  2.353982  0.67  0.759151  0.644184  0.701654  2.46457  0.51
Cu  Cu2  1  0.83987338  0.61756884  0.39992355  1  0.724312  -0.662466  1.998114  -0.444  0.693387  -0.773612  2.420828  -0.575  0.78191  -0.867864  2.354045  -0.67  0.759156  0.644121  -0.701648  2.464646  -0.51
Cu  Cu3  1  0.66012589  0.38242979  0.89992305  1  0.724323  0.662459  1.998088  0.444  0.693365  0.773598  2.420807  0.575  0.781886  0.86786  2.354055  0.67  0.759162  0.644169  0.701651  2.464575  0.51
H  H4  1  0.69123757  0.13824956  0.80556003  1  0.34499  -0.000812  0.92015  -0.001  0.327272  -0.00071  0.979605  -0.001  0.335267  -0.000571  0.973307  -0.001  0.301108  0.321596  -0.000819  0.984145  -0.001
H  H5  1  0.80876617  0.86175040  0.30556476  1  0.344996  0.000811  0.920152  0.001  0.327275  0.00071  0.979614  0.001  0.335271  0.000571  0.973316  0.001  0.301089  0.3216  0.000819  0.984149  0.001
H  H6  1  0.30876436  0.86175039  0.19443877  1  0.345027  -0.000811  0.920134  -0.001  0.327308  -0.00071  0.979591  -0.001  0.335303  -0.000571  0.973292  -0.001  0.301112  0.321632  -0.000819  0.984133  -0.001
H  H7  1  0.19123408  0.13824761  0.69443762  1  0.345021  0.000811  0.920141  0.001  0.327298  0.00071  0.979599  0.001  0.335294  0.000571  0.9733  0.001  0.301106  0.321621  0.000819  0.984139  0.001
H  H8  1  0.79858277  0.04000111  0.71739231  1  0.339686  0.000152  0.917094  0.0  0.32317  -0.000165  0.982459  0.0  0.330677  -0.000133  0.9759  0.0  0.301342  0.317879  -0.000175  0.987339  0.0
H  H9  1  0.70141888  0.95999821  0.21739707  1  0.339723  -0.000153  0.917066  0.0  0.323218  0.000164  0.982417  0.0  0.330727  0.000133  0.975852  0.0  0.30136  0.317926  0.000174  0.987297  0.0
H  H10  1  0.20141937  0.95999980  0.28260559  1  0.339673  0.000153  0.917111  0.0  0.323171  -0.000164  0.982461  0.0  0.330679  -0.000133  0.9759  0.0  0.301336  0.317882  -0.000175  0.987343  0.0
H  H11  1  0.29858013  0.03999980  0.78260531  1  0.339673  -0.000152  0.917103  0.0  0.32317  0.000164  0.982454  0.0  0.330678  0.000133  0.975892  0.0  0.301331  0.317879  0.000175  0.987334  0.0
H  H12  1  0.90326063  0.60589700  0.76184239  1  0.104116  -0.004531  0.962901  -0.006  0.116201  -0.002956  1.021103  -0.004  0.117416  -0.0021  1.020095  -0.003  0.121187  0.115354  -0.003553  1.021741  -0.004
H  H13  1  0.59674483  0.39410119  0.26184639  1  0.104131  0.004531  0.962917  0.006  0.116211  0.002956  1.021115  0.004  0.117427  0.002101  1.020105  0.003  0.121181  0.115363  0.003553  1.021759  0.004
H  H14  1  0.09674231  0.39410198  0.23815640  1  0.104127  -0.004531  0.962811  -0.006  0.116201  -0.002956  1.02104  -0.004  0.117416  -0.0021  1.02003  -0.003  0.121167  0.115354  -0.003553  1.021683  -0.004
H  H15  1  0.40325150  0.60589585  0.73815689  1  0.104174  0.00453  0.962901  0.006  0.116252  0.002956  1.021109  0.004  0.117468  0.002101  1.020101  0.003  0.121214  0.1154  0.003553  1.021755  0.004
H  H16  1  0.06909602  0.82796763  0.68869268  1  0.111938  -0.000383  0.941179  -0.001  0.123949  -0.000454  0.99656  -0.001  0.127376  -0.000318  0.995796  0.0  0.109982  0.121482  -0.000656  0.997417  -0.001
H  H17  1  0.43090753  0.17203136  0.18869455  1  0.11195  0.00038  0.941142  0.001  0.123996  0.000454  0.996482  0.001  0.1274  0.000319  0.995743  0.0  0.110025  0.121529  0.000656  0.997338  0.001
H  H18  1  0.93090591  0.17203232  0.31130701  1  0.111948  -0.000381  0.94118  -0.001  0.123957  -0.000455  0.996566  -0.001  0.127387  -0.000319  0.995798  0.0  0.109992  0.121488  -0.000656  0.997426  -0.001
H  H19  1  0.56908778  0.82796665  0.81130514  1  0.111979  0.00038  0.941022  0.001  0.123994  0.000454  0.996396  0.001  0.127421  0.000319  0.99563  0.0  0.110033  0.121526  0.000656  0.997254  0.001
H  H20  1  0.29556821  0.94654959  0.55582159  1  0.098272  -0.00061  0.955868  0.0  0.107548  -0.00034  1.018558  0.0  0.110914  -0.000257  1.015427  0.0  0.106187  0.1049  -0.000368  1.021266  0.0
H  H21  1  0.20443358  0.05345184  0.05582389  1  0.098213  0.000612  0.95599  0.0  0.107512  0.00034  1.018641  0.0  0.110867  0.000256  1.015523  0.0  0.106177  0.104876  0.000368  1.021341  0.0
H  H22  1  0.70443146  0.05345133  0.44417721  1  0.098201  -0.000609  0.955981  0.0  0.107521  -0.00034  1.018622  0.0  0.110876  -0.000257  1.015503  0.0  0.106165  0.104877  -0.000368  1.021328  0.0
H  H23  1  0.79556093  0.94654810  0.94417581  1  0.098181  0.00061  0.955997  0.0  0.107503  0.00034  1.018639  0.0  0.110859  0.000257  1.01552  0.0  0.10617  0.104866  0.000368  1.02134  0.0
H  H24  1  0.46938505  0.81910609  0.43367829  1  0.105085  -0.000471  0.96605  -0.001  0.11322  -0.000487  1.029593  -0.001  0.116627  -0.000352  1.028718  0.0  0.105888  0.110662  -0.000692  1.030534  -0.001
H  H25  1  0.03061642  0.18089681  0.93368167  1  0.105044  0.00047  0.966006  0.001  0.113179  0.000486  1.029545  0.001  0.116577  0.000352  1.028678  0.0  0.105873  0.110627  0.000692  1.030479  0.001
H  H26  1  0.53061484  0.18089579  0.56631871  1  0.105033  -0.000471  0.966016  -0.001  0.113171  -0.000486  1.029554  -0.001  0.116567  -0.000352  1.02869  0.0  0.105872  0.11062  -0.000692  1.030484  -0.001
H  H27  1  0.96937874  0.81910603  0.06631802  1  0.105066  0.00047  0.965981  0.001  0.1132  0.000486  1.029529  0.001  0.116598  0.000352  1.028661  0.0  0.105886  0.11064  0.000692  1.030473  0.001
H  H28  1  0.40584263  0.57626443  0.44490493  1  0.091115  -0.001145  0.940007  -0.002  0.097753  -0.001131  1.007238  -0.002  0.100215  -0.000781  1.004498  -0.001  0.118433  0.09595  -0.001571  1.009101  -0.002
H  H29  1  0.09415892  0.42373844  0.94491114  1  0.091198  0.001144  0.939894  0.002  0.097795  0.001131  1.007201  0.002  0.100257  0.000782  1.004462  0.001  0.118475  0.095995  0.001571  1.009063  0.002
H  H30  1  0.59416096  0.42373746  0.55509117  1  0.091138  -0.001143  0.939938  -0.002  0.09772  -0.001132  1.00727  -0.002  0.100181  -0.000782  1.00453  -0.001  0.118435  0.095918  -0.001571  1.009132  -0.002
H  H31  1  0.90583893  0.57626538  0.05509124  1  0.091172  0.001144  0.939934  0.002  0.097761  0.001131  1.007243  0.002  0.100222  0.000781  1.004504  0.001  0.118428  0.095958  0.001571  1.009106  0.002
C  C32  1  0.90101735  0.22912308  0.71984877  1  0.7171  -0.005522  3.879246  -0.004  0.661277  -0.004706  4.179063  -0.004  0.695902  -0.003522  4.18099  -0.003  0.315184  0.638309  -0.005651  4.176842  -0.005
C  C33  1  0.59898534  0.77087527  0.21985389  1  0.716993  0.005522  3.87922  0.004  0.661198  0.004707  4.178982  0.004  0.695821  0.003522  4.180914  0.003  0.315209  0.638232  0.005651  4.17676  0.005
C  C34  1  0.09898559  0.77087590  0.28014913  1  0.717205  -0.00552  3.879046  -0.004  0.66134  -0.004706  4.178931  -0.004  0.695962  -0.003521  4.180863  -0.003  0.315234  0.638371  -0.005651  4.176711  -0.005
C  C35  1  0.40101492  0.22912275  0.78014760  1  0.717  0.005522  3.879271  0.004  0.661203  0.004707  4.179051  0.004  0.695829  0.003523  4.180977  0.003  0.315217  0.638237  0.005651  4.17683  0.005
C  C36  1  0.99311324  0.56281091  0.70992210  1  0.001082  0.017492  3.64162  0.017  -0.044979  0.00456  3.920085  0.006  -0.033715  0.006615  3.929546  0.008  0.038524  -0.05194  0.003012  3.914255  0.004
C  C37  1  0.50688959  0.43718844  0.20992644  1  0.001127  -0.017452  3.641654  -0.017  -0.044816  -0.004559  3.920168  -0.006  -0.03355  -0.006613  3.929628  -0.008  0.038636  -0.051777  -0.003013  3.914334  -0.004
C  C38  1  0.00688766  0.43719000  0.29007579  1  0.001101  0.01749  3.641512  0.017  -0.04493  0.004558  3.919993  0.006  -0.033664  0.006614  3.929449  0.008  0.038587  -0.051892  0.003012  3.914166  0.004
C  C39  1  0.49310921  0.56280861  0.79007595  1  0.000958  -0.01747  3.641715  -0.017  -0.045059  -0.004558  3.920214  -0.006  -0.033794  -0.006615  3.92967  -0.008  0.038502  -0.05202  -0.003012  3.914383  -0.004
C  C40  1  0.12110710  0.64102477  0.63782956  1  0.189123  -0.00159  3.825903  -0.002  0.185663  -0.001668  4.085093  -0.002  0.193196  -0.001027  4.104227  -0.001  0.103799  0.180173  -0.002204  4.073734  -0.003
C  C41  1  0.37889754  0.35897538  0.13783312  1  0.1893  0.001547  3.825547  0.002  0.185824  0.001669  4.084758  0.002  0.193353  0.001026  4.103888  0.001  0.103839  0.180333  0.002203  4.073398  0.003
C  C42  1  0.87889649  0.35897711  0.36216923  1  0.189154  -0.001578  3.825735  -0.002  0.185686  -0.001668  4.084982  -0.002  0.193213  -0.001026  4.104121  -0.001  0.103785  0.180192  -0.002203  4.073625  -0.003
C  C43  1  0.62110294  0.64102360  0.86216747  1  0.189275  0.001567  3.825541  0.002  0.185746  0.001669  4.084838  0.002  0.193275  0.001027  4.103971  0.001  0.103798  0.18026  0.002203  4.073474  0.003
C  C44  1  0.14773672  0.77605406  0.63467464  1  -0.133052  7e-06  3.688485  0.0  -0.151412  -0.00072  3.932333  -0.001  -0.156983  -0.000392  3.949651  -0.001  -0.079701  -0.148187  -0.001024  3.921594  -0.001
C  C45  1  0.35226666  0.22394610  0.13467686  1  -0.133129  5.2e-05  3.688174  0.0  -0.151507  0.000718  3.932027  0.001  -0.157061  0.000394  3.949361  0.001  -0.079722  -0.148281  0.001023  3.921296  0.001
C  C46  1  0.85226564  0.22394782  0.36532505  1  -0.133117  -1.4e-05  3.688352  0.0  -0.151463  -0.000719  3.932212  -0.001  -0.157039  -0.000393  3.94954  -0.001  -0.079714  -0.148237  -0.001024  3.921478  -0.001
C  C47  1  0.64773010  0.77605288  0.86532373  1  -0.133157  2.7e-05  3.68812  0.0  -0.151476  0.00072  3.931998  0.001  -0.157049  0.000392  3.949326  0.001  -0.079756  -0.148254  0.001023  3.921266  0.001
C  C48  1  0.27392485  0.84140075  0.56107689  1  0.017045  0.004958  3.688621  0.004  0.00104  0.002445  3.93468  0.002  0.008912  0.002342  3.945662  0.002  -0.06298  -0.00438  0.002449  3.927952  0.002
C  C49  1  0.22607822  0.15860066  0.06107884  1  0.017016  -0.005013  3.688562  -0.004  0.000996  -0.002442  3.934624  -0.002  0.008873  -0.002343  3.945609  -0.002  -0.063016  -0.004435  -0.002449  3.927898  -0.002
C  C50  1  0.72607606  0.15860017  0.43892190  1  0.017085  0.004975  3.68857  0.004  0.001038  0.002444  3.934633  0.002  0.008914  0.002342  3.945627  0.002  -0.062965  -0.004387  0.002449  3.927906  0.002
C  C51  1  0.77391898  0.84140025  0.93891995  1  0.017031  -0.004985  3.68871  -0.004  0.000968  -0.002443  3.934803  -0.002  0.008846  -0.002341  3.94579  -0.002  -0.063003  -0.004462  -0.002449  3.928073  -0.002
C  C52  1  0.37000134  0.77101449  0.49197633  1  -0.115567  -0.004082  3.702863  -0.005  -0.130861  -0.002815  3.953735  -0.004  -0.136593  -0.002161  3.970023  -0.003  -0.088047  -0.127129  -0.003538  3.942838  -0.004
C  C53  1  0.13000034  0.22898723  0.99197903  1  -0.115369  0.004144  3.702785  0.005  -0.130635  0.002812  3.953602  0.004  -0.136353  0.002162  3.969889  0.003  -0.087976  -0.126903  0.003537  3.942704  0.004
C  C54  1  0.62999979  0.22898740  0.50802246  1  -0.115451  -0.004103  3.702801  -0.005  -0.13072  -0.002814  3.953642  -0.004  -0.13644  -0.002161  3.969927  -0.003  -0.088008  -0.126988  -0.003538  3.942738  -0.004
C  C55  1  0.86999606  0.77101561  0.00802156  1  -0.115374  0.004114  3.702878  0.005  -0.130646  0.002813  3.953722  0.004  -0.136366  0.00216  3.970009  0.003  -0.087971  -0.126913  0.003538  3.942828  0.004
C  C56  1  0.33638575  0.63628904  0.49796023  1  0.152006  0.005949  3.677417  0.006  0.12205  0.001644  3.936101  0.003  0.134485  0.002324  3.950466  0.004  0.051058  0.114177  0.000939  3.926669  0.002
C  C57  1  0.16361473  0.36371266  0.99796700  1  0.151847  -0.005995  3.67749  -0.007  0.121917  -0.001642  3.936176  -0.003  0.134351  -0.002325  3.950538  -0.004  0.05101  0.114036  -0.000939  3.926749  -0.002
C  C58  1  0.66361414  0.36371284  0.50203497  1  0.151939  0.005965  3.677419  0.006  0.122013  0.001644  3.936131  0.003  0.134448  0.002324  3.950492  0.004  0.051041  0.114131  0.000939  3.926701  0.002
C  C59  1  0.83638414  0.63629019  0.00203539  1  0.151872  -0.005973  3.677546  -0.007  0.121963  -0.001642  3.936199  -0.003  0.134397  -0.002323  3.95056  -0.004  0.051045  0.114086  -0.000939  3.926771  -0.002
N  N60  1  0.27064225  0.32769176  0.45740102  1  -0.500876  -0.062381  2.711513  -0.073  -0.54153  -0.02698  3.068467  -0.034  -0.582341  -0.015166  3.083674  -0.021  -0.319936  -0.516016  -0.034023  3.058682  -0.04
N  N61  1  0.22935895  0.67230913  0.95740587  1  -0.500851  0.062379  2.711602  0.073  -0.541539  0.026975  3.068583  0.034  -0.582342  0.015165  3.083784  0.021  -0.319931  -0.516001  0.034022  3.058779  0.04
N  N62  1  0.72936069  0.67230723  0.54259688  1  -0.500838  -0.062384  2.711557  -0.073  -0.541504  -0.026976  3.068524  -0.034  -0.58231  -0.015166  3.08373  -0.021  -0.319909  -0.515969  -0.034024  3.058717  -0.04
N  N63  1  0.77063927  0.32769082  0.04259741  1  -0.500862  0.062373  2.711519  0.073  -0.541534  0.026973  3.06851  0.034  -0.582338  0.015163  3.083718  0.021  -0.319942  -0.516018  0.034019  3.058716  0.04
N  N64  1  0.25410819  0.21618815  0.42811262  1  0.382507  0.025578  4.215753  0.038  0.431534  0.002369  4.526533  0.008  0.450006  0.004079  4.564246  0.009  0.081172  0.419844  0.000262  4.500469  0.006
N  N65  1  0.24588866  0.78381090  0.92811528  1  0.382407  -0.025586  4.215959  -0.038  0.431441  -0.002369  4.526733  -0.008  0.44991  -0.004076  4.56445  -0.009  0.081142  0.419745  -0.000262  4.500671  -0.006
N  N66  1  0.74589228  0.78381083  0.57188617  1  0.382432  0.025574  4.215851  0.038  0.431466  0.002368  4.526626  0.008  0.449934  0.004078  4.564342  0.009  0.081135  0.419773  0.000262  4.500555  0.006
N  N67  1  0.75410854  0.21619001  0.07188710  1  0.382511  -0.025585  4.215715  -0.038  0.431538  -0.002369  4.526496  -0.008  0.45001  -0.004077  4.564205  -0.009  0.081171  0.419845  -0.000263  4.500437  -0.006
N  N68  1  0.24379905  0.10914744  0.39525501  1  -0.390744  -0.119556  2.418978  -0.126  -0.412369  -0.051868  2.662753  -0.057  -0.425427  -0.043629  2.674962  -0.05  -0.194919  -0.403011  -0.056728  2.654438  -0.06
N  N69  1  0.25619756  0.89085174  0.89525726  1  -0.390676  0.119574  2.419037  0.126  -0.412316  0.051868  2.662824  0.057  -0.425369  0.043627  2.675035  0.05  -0.194903  -0.402945  0.05673  2.65451  0.06
N  N70  1  0.75619895  0.89085154  0.60474288  1  -0.390709  -0.119551  2.418988  -0.126  -0.412346  -0.051866  2.662773  -0.057  -0.425393  -0.043627  2.674979  -0.05  -0.194913  -0.40298  -0.05673  2.654457  -0.06
N  N71  1  0.74380168  0.10914724  0.10474512  1  -0.390769  0.11958  2.418869  0.126  -0.412405  0.051871  2.662657  0.057  -0.425463  0.04363  2.67487  0.05  -0.194934  -0.403041  0.056733  2.654347  0.06
N  N72  1  0.79987117  0.12430174  0.76372828  1  -0.710379  -0.003372  3.058424  -0.003  -0.667012  -0.002519  3.283163  -0.002  -0.691374  -0.002107  3.278162  -0.002  -0.573349  -0.650087  -0.002653  3.286532  -0.002
N  N73  1  0.70013206  0.87569741  0.26373249  1  -0.710393  0.003369  3.058504  0.003  -0.667054  0.002519  3.283247  0.002  -0.691419  0.002105  3.278247  0.002  -0.573323  -0.650127  0.002653  3.286614  0.002
N  N74  1  0.20013076  0.87569821  0.23627051  1  -0.710447  -0.003374  3.058451  -0.003  -0.66709  -0.002519  3.283225  -0.002  -0.691452  -0.002107  3.278224  -0.002  -0.573357  -0.650165  -0.002653  3.286598  -0.002
N  N75  1  0.29986718  0.12430157  0.73626989  1  -0.710398  0.00337  3.058547  0.003  -0.667055  0.002519  3.283298  0.002  -0.69142  0.002106  3.278296  0.002  -0.573323  -0.650128  0.002653  3.286665  0.002
N  N76  1  0.87624306  0.34835218  0.75790489  1  -0.442115  -0.019736  2.996983  -0.017  -0.419295  -0.011557  3.315732  -0.009  -0.451745  -0.007623  3.336838  -0.005  -0.262087  -0.397462  -0.015112  3.302781  -0.013
N  N77  1  0.62376260  0.65164699  0.25790972  1  -0.442118  0.01972  2.99707  0.017  -0.419213  0.011554  3.315857  0.009  -0.451665  0.007619  3.336961  0.005  -0.262081  -0.397371  0.01511  3.302898  0.013
N  N78  1  0.12376011  0.65164777  0.24209390  1  -0.44218  -0.019734  2.997007  -0.017  -0.419321  -0.011553  3.315764  -0.009  -0.451777  -0.007622  3.336874  -0.005  -0.262102  -0.397481  -0.015111  3.302809  -0.013
N  N79  1  0.37623889  0.34835102  0.74209177  1  -0.442057  0.019726  2.997049  0.017  -0.419225  0.011554  3.315788  0.009  -0.451686  0.007621  3.336902  0.005  -0.262073  -0.397398  0.015111  3.302849  0.013
N  N80  1  0.98957183  0.43865123  0.70427692  1  -0.099045  -0.100246  3.525312  -0.12  -0.060363  -0.072864  3.846375  -0.095  -0.080429  -0.061366  3.872761  -0.084  -0.249072  -0.050621  -0.078139  3.831541  -0.098
N  N81  1  0.51043220  0.56134814  0.20428165  1  -0.099033  0.10021  3.525532  0.12  -0.060629  0.07286  3.846873  0.095  -0.080687  0.061365  3.873247  0.084  -0.249184  -0.050868  0.078138  3.832013  0.098
N  N82  1  0.01043155  0.56134969  0.29572277  1  -0.098997  -0.100239  3.52535  -0.12  -0.060378  -0.072861  3.846475  -0.095  -0.080431  -0.061365  3.872844  -0.084  -0.249082  -0.050617  -0.078137  3.831617  -0.098
N  N83  1  0.48956784  0.43864890  0.79572073  1  -0.098978  0.100226  3.525458  0.12  -0.060338  0.072861  3.846544  0.095  -0.080393  0.061368  3.872913  0.084  -0.249069  -0.050592  0.078137  3.831699  0.098
N  N84  1  0.21633072  0.57346296  0.56926734  1  -0.355334  -0.070322  3.333487  -0.083  -0.305951  -0.059738  3.630071  -0.077  -0.336624  -0.050387  3.64829  -0.068  -0.354471  -0.288813  -0.064389  3.620725  -0.079
N  N85  1  0.28367219  0.42653745  0.06927200  1  -0.355479  0.070359  3.333455  0.083  -0.306142  0.059734  3.630108  0.077  -0.336803  0.050387  3.648314  0.068  -0.354581  -0.288982  0.064387  3.620741  0.079
N  N86  1  0.78367266  0.42653796  0.43073235  1  -0.355327  -0.070337  3.333443  -0.083  -0.306007  -0.059737  3.630107  -0.077  -0.336664  -0.050387  3.648309  -0.068  -0.354519  -0.288845  -0.064389  3.620739  -0.079
N  N87  1  0.71632850  0.57346250  0.93073128  1  -0.355413  0.07034  3.333428  0.083  -0.306063  0.059735  3.63011  0.077  -0.336719  0.050386  3.648306  0.068  -0.354524  -0.288917  0.064387  3.620749  0.079
O  O88  1  0.01759477  0.21273015  0.64457659  1  -0.631272  -0.0626  2.063513  -0.078  -0.570189  -0.050941  2.316404  -0.069  -0.607602  -0.042177  2.308269  -0.061  -0.32841  -0.546783  -0.054747  2.32254  -0.072
O  O89  1  0.48240374  0.78726998  0.14458148  1  -0.631202  0.062602  2.063385  0.078  -0.570144  0.050941  2.316267  0.069  -0.60755  0.042178  2.308121  0.061  -0.328457  -0.546725  0.054749  2.322397  0.072
O  O90  1  0.98240715  0.78726980  0.35542131  1  -0.63129  -0.062602  2.063284  -0.078  -0.570216  -0.050942  2.316218  -0.069  -0.607619  -0.042178  2.308072  -0.061  -0.328436  -0.546795  -0.054749  2.322343  -0.072
O  O91  1  0.51759797  0.21272900  0.85541911  1  -0.631197  0.062605  2.063369  0.078  -0.570159  0.050943  2.316314  0.069  -0.607563  0.04218  2.308165  0.061  -0.328477  -0.546754  0.054751  2.322448  0.072
