# generated using pymatgen
data_ZnH28C30(N4O3)2
_symmetry_space_group_name_H-M   'P 1'
_cell_length_a   5.44650047
_cell_length_b   11.57043549
_cell_length_c   11.80452456
_cell_angle_alpha   66.65704609
_cell_angle_beta   85.78334963
_cell_angle_gamma   82.93225442
_symmetry_Int_Tables_number   1
_chemical_formula_structural   ZnH28C30(N4O3)2
_chemical_formula_sum   'Zn1 H28 C30 N8 O6'
_cell_volume   677.57278932
_cell_formula_units_Z   1
loop_
 _symmetry_equiv_pos_site_id
 _symmetry_equiv_pos_as_xyz
  1  'x, y, z'
loop_
 _atom_site_type_symbol
 _atom_site_label
 _atom_site_symmetry_multiplicity
 _atom_site_fract_x
 _atom_site_fract_y
 _atom_site_fract_z
 _atom_site_occupancy
 _atom_site_hle17_bader_spin_density
 _atom_site_hle17_ddec_charge
 _atom_site_hle17_ddec_spin_density
 _atom_site_hle17_ddec_sum_bond_order
 _atom_site_hle17_magmom
 _atom_site_hse06_10hf_bader_spin_density
 _atom_site_hse06_10hf_ddec_charge
 _atom_site_hse06_10hf_ddec_spin_density
 _atom_site_hse06_10hf_ddec_sum_bond_order
 _atom_site_hse06_10hf_magmom
 _atom_site_hse06_bader_spin_density
 _atom_site_hse06_ddec_charge
 _atom_site_hse06_ddec_spin_density
 _atom_site_hse06_ddec_sum_bond_order
 _atom_site_hse06_magmom
 _atom_site_pbe_bader_spin_density
 _atom_site_pbe_cm5_charge
 _atom_site_pbe_ddec_charge
 _atom_site_pbe_ddec_spin_density
 _atom_site_pbe_ddec_sum_bond_order
 _atom_site_pbe_magmom
Zn  Zn0  1  0.99999973  0.99999635  0.99999806  1  0  1.069607  0  1.760561  0  0  0.889669  0  2.195905  0  0  0.937624  0  2.143363  0  0  0.668003  0.856007  0  2.231846  0
H  H1  1  0.88157068  0.63460206  0.57447923  1  0  0.0925  0  0.957787  0  0  0.101209  0  1.025632  0  0  0.10409  0  1.024063  0  0  0.098802  0.099124  0  1.026827  0
H  H2  1  0.11843664  0.36541075  0.42552240  1  0  0.092461  0  0.957567  0  0  0.101157  0  1.025478  0  0  0.104038  0  1.023909  0  0  0.098779  0.099076  0  1.026675  0
H  H3  1  0.89208505  0.85422596  0.55854827  1  0  0.093373  0  0.956722  0  0  0.104743  0  1.015226  0  0  0.107888  0  1.013573  0  0  0.100285  0.102451  0  1.016542  0
H  H4  1  0.10791455  0.14578876  0.44145282  1  0  0.093443  0  0.956892  0  0  0.104771  0  1.015426  0  0  0.107915  0  1.013773  0  0  0.1003  0.102481  0  1.016741  0
H  H5  1  0.53922725  0.95830693  0.64095229  1  0  0.083214  0  0.973161  0  0  0.097353  0  1.030394  0  0  0.099413  0  1.030289  0  0  0.097211  0.09585  0  1.030577  0
H  H6  1  0.46073218  0.04170693  0.35904270  1  0  0.083359  0  0.973229  0  0  0.097471  0  1.030482  0  0  0.09953  0  1.030371  0  0  0.09725  0.095961  0  1.030679  0
H  H7  1  0.17774642  0.84152617  0.74259485  1  0  0.095929  0  0.968474  0  0  0.10504  0  1.030729  0  0  0.107771  0  1.030269  0  0  0.097795  0.103068  0  1.031161  0
H  H8  1  0.82224770  0.15846869  0.25741176  1  0  0.095828  0  0.968314  0  0  0.104938  0  1.030598  0  0  0.107629  0  1.030187  0  0  0.097779  0.10297  0  1.031019  0
H  H9  1  0.16309764  0.62233677  0.75467833  1  0  0.092166  0  0.98265  0  0  0.099945  0  1.051521  0  0  0.102617  0  1.051027  0  0  0.095542  0.098037  0  1.051944  0
H  H10  1  0.83691631  0.37765994  0.24533035  1  0  0.092286  0  0.982605  0  0  0.100099  0  1.051435  0  0  0.102734  0  1.050962  0  0  0.095617  0.0982  0  1.051852  0
H  H11  1  0.87779245  0.40501016  0.62389251  1  0  0.137614  0  0.964216  0  0  0.141128  0  1.038064  0  0  0.14506  0  1.034134  0  0  0.129816  0.138301  0  1.04082  0
H  H12  1  0.12219913  0.59499971  0.37609804  1  0  0.137578  0  0.964009  0  0  0.141133  0  1.037827  0  0  0.145066  0  1.033899  0  0  0.12983  0.138308  0  1.040579  0
H  H13  1  0.74092919  0.21891592  0.53795917  1  0  0.114806  0  0.936825  0  0  0.127481  0  0.997757  0  0  0.128485  0  0.998873  0  0  0.118533  0.126768  0  0.997024  0
H  H14  1  0.25906631  0.78108174  0.46204375  1  0  0.11481  0  0.936798  0  0  0.127492  0  0.997731  0  0  0.128495  0  0.998843  0  0  0.118558  0.126783  0  0.996992  0
H  H15  1  0.49095726  0.14394939  0.63319194  1  0  0.124397  0  0.934103  0  0  0.135171  0  1.000622  0  0  0.137987  0  0.998586  0  0  0.128105  0.133124  0  1.002216  0
H  H16  1  0.50903304  0.85605592  0.36681317  1  0  0.124381  0  0.934095  0  0  0.135193  0  1.000553  0  0  0.137997  0  0.998529  0  0  0.128145  0.133149  0  1.002142  0
H  H17  1  0.64784724  0.85044933  0.91286761  1  0  0.084538  0  0.972284  0  0  0.090819  0  1.040579  0  0  0.09358  0  1.03824  0  0  0.112814  0.088722  0  1.042378  0
H  H18  1  0.35213629  0.14954448  0.08712787  1  0  0.084588  0  0.972384  0  0  0.090881  0  1.040633  0  0  0.093637  0  1.038298  0  0  0.11285  0.088788  0  1.042433  0
H  H19  1  0.65191906  0.64360374  0.90100506  1  0  0.098757  0  0.98752  0  0  0.107975  0  1.051706  0  0  0.110044  0  1.05337  0  0  0.102671  0.106453  0  1.050713  0
H  H20  1  0.34807656  0.35638349  0.09900031  1  0  0.098846  0  0.987457  0  0  0.108038  0  1.051651  0  0  0.110109  0  1.053324  0  0  0.102738  0.106515  0  1.050665  0
H  H21  1  0.33767158  0.53036227  0.09944390  1  0  0.099204  0  0.97856  0  0  0.109232  0  1.041094  0  0  0.111865  0  1.04136  0  0  0.103929  0.107363  0  1.041022  0
H  H22  1  0.66233393  0.46963237  0.90054891  1  0  0.099258  0  0.978503  0  0  0.109232  0  1.041094  0  0  0.111881  0  1.041314  0  0  0.103891  0.107361  0  1.041021  0
H  H23  1  0.31131770  0.74609432  0.09485182  1  0  0.083045  0  0.959831  0  0  0.087576  0  1.027493  0  0  0.090188  0  1.025838  0  0  0.114913  0.085688  0  1.028688  0
H  H24  1  0.68867325  0.25389857  0.90514889  1  0  0.083006  0  0.959705  0  0  0.087575  0  1.027331  0  0  0.090186  0  1.025677  0  0  0.11494  0.085682  0  1.028534  0
H  H25  1  0.76848139  0.97478202  0.19511733  1  0  0.407821  0  0.910393  0  0  0.374224  0  0.980571  0  0  0.385901  0  0.963695  0  0  0.284778  0.366003  0  0.992426  0
H  H26  1  0.23152718  0.02521464  0.80488560  1  0  0.407818  0  0.910418  0  0  0.374221  0  0.980595  0  0  0.385899  0  0.96372  0  0  0.284759  0.365993  0  0.992464  0
H  H27  1  0.54447746  0.94840739  0.12763514  1  0  0.425474  0  0.868486  0  0  0.394335  0  0.935946  0  0  0.405281  0  0.920083  0  0  0.293765  0.386568  0  0.947189  0
H  H28  1  0.45553173  0.05158638  0.87236470  1  0  0.425525  0  0.868403  0  0  0.39439  0  0.935877  0  0  0.405339  0  0.920008  0  0  0.293804  0.386628  0  0.947107  0
C  C29  1  0.52007677  0.61400558  0.66505972  1  0  0.023934  0  3.834121  0  0  0.042282  0  4.062649  0  0  0.042774  0  4.085851  0  0  -0.014113  0.04199  0  4.046913  0
C  C30  1  0.47992050  0.38599125  0.33495364  1  0  0.023968  0  3.83392  0  0  0.042353  0  4.062394  0  0  0.042838  0  4.08558  0  0  -0.014004  0.042064  0  4.046668  0
C  C31  1  0.72778835  0.67954297  0.61192784  1  0  -0.10744  0  3.725988  0  0  -0.129474  0  3.976682  0  0  -0.132366  0  3.997648  0  0  -0.090787  -0.127435  0  3.962413  0
C  C32  1  0.27222646  0.32045938  0.38807604  1  0  -0.107309  0  3.726681  0  0  -0.129378  0  3.977376  0  0  -0.132275  0  3.998355  0  0  -0.090844  -0.127338  0  3.963109  0
C  C33  1  0.73431209  0.80265520  0.60378530  1  0  -0.069081  0  3.77878  0  0  -0.081144  0  4.028221  0  0  -0.082615  0  4.049425  0  0  -0.091266  -0.080019  0  4.013725  0
C  C34  1  0.26566008  0.19736734  0.39622365  1  0  -0.069125  0  3.778989  0  0  -0.081126  0  4.028344  0  0  -0.082593  0  4.049549  0  0  -0.091217  -0.080006  0  4.013858  0
C  C35  1  0.53605702  0.86120236  0.65009213  1  0  -0.072323  0  3.761435  0  0  -0.086632  0  4.006572  0  0  -0.089095  0  4.028818  0  0  -0.094957  -0.084901  0  3.991393  0
C  C36  1  0.46393481  0.13879530  0.34991004  1  0  -0.072525  0  3.76103  0  0  -0.086829  0  4.00618  0  0  -0.089284  0  4.028405  0  0  -0.09492  -0.085095  0  3.990992  0
C  C37  1  0.33199409  0.79569537  0.70642798  1  0  -0.073875  0  3.778201  0  0  -0.08452  0  4.025135  0  0  -0.085783  0  4.04578  0  0  -0.095657  -0.083551  0  4.011063  0
C  C38  1  0.66798491  0.20431097  0.29357959  1  0  -0.073594  0  3.778444  0  0  -0.08424  0  4.025411  0  0  -0.085468  0  4.046063  0  0  -0.09568  -0.083264  0  4.011322  0
C  C39  1  0.32395532  0.67297394  0.71369686  1  0  -0.128327  0  3.752128  0  0  -0.148477  0  3.999647  0  0  -0.151176  0  4.019393  0  0  -0.098231  -0.146595  0  3.986257  0
C  C40  1  0.67606431  0.32701231  0.28631244  1  0  -0.128637  0  3.752252  0  0  -0.148848  0  3.999787  0  0  -0.151504  0  4.019551  0  0  -0.098371  -0.14698  0  3.986406  0
C  C41  1  0.50037667  0.48929641  0.66494442  1  0  0.089517  0  3.832917  0  0  0.087115  0  4.098511  0  0  0.086737  0  4.120673  0  0  0.081856  0.087214  0  4.08338  0
C  C42  1  0.49962188  0.51071450  0.33505484  1  0  0.089446  0  3.833234  0  0  0.087084  0  4.098749  0  0  0.086748  0  4.120847  0  0  0.081845  0.087168  0  4.083637  0
C  C43  1  0.67944205  0.40496654  0.64077776  1  0  -0.08235  0  3.590814  0  0  -0.144796  0  3.848263  0  0  -0.141683  0  3.863145  0  0  0.027027  -0.14643  0  3.838126  0
C  C44  1  0.32058328  0.59503946  0.35921758  1  0  -0.082363  0  3.590977  0  0  -0.14482  0  3.848462  0  0  -0.141721  0  3.86334  0  0  0.027037  -0.146446  0  3.838321  0
C  C45  1  0.65227244  0.19369828  0.62974577  1  0  -0.186427  0  3.61617  0  0  -0.257778  0  3.85824  0  0  -0.258833  0  3.863731  0  0  -0.049518  -0.256889  0  3.85444  0
C  C46  1  0.34772604  0.80630315  0.37025557  1  0  -0.186416  0  3.616188  0  0  -0.257788  0  3.858274  0  0  -0.258818  0  3.863767  0  0  -0.049589  -0.256904  0  3.854479  0
C  C47  1  0.83669742  0.10920367  0.72892636  1  0  0.687333  0  3.842156  0  0  0.632629  0  4.154592  0  0  0.665874  0  4.146518  0  0  0.218621  0.610171  0  4.159149  0
C  C48  1  0.16328843  0.89079596  0.27107944  1  0  0.687057  0  3.84264  0  0  0.632428  0  4.154912  0  0  0.665645  0  4.146879  0  0  0.218563  0.609951  0  4.159497  0
C  C49  1  0.79975554  0.77730997  0.95244918  1  0  0.129268  0  3.685607  0  0  0.099925  0  3.93677  0  0  0.106394  0  3.954557  0  0  0.046256  0.095784  0  3.924701  0
C  C50  1  0.20025364  0.22268466  0.04754354  1  0  0.129081  0  3.685757  0  0  0.099749  0  3.936906  0  0  0.106227  0  3.954689  0  0  0.046186  0.095605  0  3.924834  0
C  C51  1  0.80213650  0.65880655  0.94784502  1  0  -0.149803  0  3.683379  0  0  -0.16625  0  3.92616  0  0  -0.173892  0  3.94865  0  0  -0.079956  -0.161264  0  3.911087  0
C  C52  1  0.19786843  0.34118145  0.05214876  1  0  -0.149845  0  3.683669  0  0  -0.166322  0  3.926419  0  0  -0.173972  0  3.948901  0  0  -0.079998  -0.16134  0  3.911358  0
C  C53  1  0.99540993  0.56398278  0.00099448  1  0  0.091824  0  3.73843  0  0  0.103416  0  3.967957  0  0  0.107601  0  3.987903  0  0  0.013182  0.100762  0  3.954326  0
C  C54  1  0.00461701  0.43600603  0.99899494  1  0  0.092138  0  3.738104  0  0  0.103911  0  3.967416  0  0  0.108103  0  3.987353  0  0  0.013259  0.101253  0  3.953786  0
C  C55  1  0.18092273  0.59738278  0.05539388  1  0  -0.149707  0  3.692208  0  0  -0.170016  0  3.942959  0  0  -0.177367  0  3.964121  0  0  -0.079752  -0.165272  0  3.928832  0
C  C56  1  0.81908481  0.40261175  0.94459130  1  0  -0.149959  0  3.692033  0  0  -0.170227  0  3.942725  0  0  -0.177576  0  3.963891  0  0  -0.07971  -0.165474  0  3.928587  0
C  C57  1  0.16728945  0.71849664  0.05436883  1  0  0.137869  0  3.695991  0  0  0.107371  0  3.950726  0  0  0.113737  0  3.969058  0  0  0.048124  0.10327  0  3.938283  0
C  C58  1  0.83272635  0.28150177  0.94562472  1  0  0.137966  0  3.696378  0  0  0.107426  0  3.951111  0  0  0.113789  0  3.969457  0  0  0.048045  0.103322  0  3.938661  0
N  N59  1  0.27875776  0.43769848  0.68625678  1  0  -0.253465  0  3.004936  0  0  -0.237962  0  3.307583  0  0  -0.242925  0  3.32105  0  0  -0.208212  -0.234019  0  3.298023  0
N  N60  1  0.72124326  0.56230867  0.31374644  1  0  -0.253544  0  3.004766  0  0  -0.238038  0  3.307413  0  0  -0.243009  0  3.320857  0  0  -0.208243  -0.234092  0  3.297857  0
N  N61  1  0.31194899  0.32792267  0.67614293  1  0  -0.117762  0  2.883892  0  0  -0.128508  0  3.171327  0  0  -0.127125  0  3.182312  0  0  -0.10044  -0.129044  0  3.163808  0
N  N62  1  0.68805690  0.67208822  0.32385697  1  0  -0.117716  0  2.883598  0  0  -0.12846  0  3.171106  0  0  -0.127075  0  3.182092  0  0  -0.100421  -0.128984  0  3.163572  0
N  N63  1  0.55530918  0.30763169  0.64809014  1  0  0.082188  0  3.603578  0  0  0.197665  0  3.790199  0  0  0.189308  0  3.814758  0  0  -0.134152  0.202115  0  3.775465  0
N  N64  1  0.44469051  0.69237348  0.35190713  1  0  0.082315  0  3.603607  0  0  0.197655  0  3.790414  0  0  0.18929  0  3.81499  0  0  -0.134199  0.202105  0  3.775676  0
N  N65  1  0.97954211  0.80813250  0.00455611  1  0  -0.318988  0  3.224633  0  0  -0.245346  0  3.488075  0  0  -0.26297  0  3.504464  0  0  -0.314453  -0.233428  0  3.47682  0
N  N66  1  0.02045264  0.19186118  0.99543232  1  0  -0.318959  0  3.224738  0  0  -0.245334  0  3.488188  0  0  -0.262964  0  3.504585  0  0  -0.314457  -0.233416  0  3.476931  0
O  O67  1  0.76595657  0.08767792  0.84108406  1  0  -0.668507  0  2.086351  0  0  -0.590664  0  2.337316  0  0  -0.619624  0  2.32587  0  0  -0.311965  -0.570366  0  2.34445  0
O  O68  1  0.23403470  0.91231310  0.15891824  1  0  -0.668464  0  2.086191  0  0  -0.590696  0  2.337219  0  0  -0.619644  0  2.325788  0  0  -0.312034  -0.570393  0  2.344361  0
O  O69  1  0.03855208  0.06742568  0.69380397  1  0  -0.599907  0  1.961295  0  0  -0.550515  0  2.189285  0  0  -0.574335  0  2.180558  0  0  -0.305385  -0.533973  0  2.19478  0
O  O70  1  0.96145496  0.93257947  0.30619394  1  0  -0.599722  0  1.961762  0  0  -0.550318  0  2.189679  0  0  -0.574124  0  2.180964  0  0  -0.305287  -0.533771  0  2.195172  0
O  O71  1  0.68369589  0.00065380  0.11409736  1  0  -0.831665  0  1.945734  0  0  -0.769476  0  2.160793  0  0  -0.791725  0  2.126275  0  0  -0.579171  -0.753734  0  2.184709  0
O  O72  1  0.31630743  0.99934188  0.88590188  1  0  -0.831731  0  1.945728  0  0  -0.769519  0  2.16074  0  0  -0.791771  0  2.12622  0  0  -0.579212  -0.753772  0  2.184659  0
