# generated using pymatgen
data_MnGa3P4H26C8(N3O8)2
_symmetry_space_group_name_H-M   'P 1'
_cell_length_a   13.47493192
_cell_length_b   14.06072205
_cell_length_c   14.06192619
_cell_angle_alpha   110.30111926
_cell_angle_beta   108.62113520
_cell_angle_gamma   108.63490834
_symmetry_Int_Tables_number   1
_chemical_formula_structural   MnGa3P4H26C8(N3O8)2
_chemical_formula_sum   'Mn3 Ga9 P12 H78 C24 N18 O48'
_cell_volume   2071.91010745
_cell_formula_units_Z   3
loop_
 _symmetry_equiv_pos_site_id
 _symmetry_equiv_pos_as_xyz
  1  'x, y, z'
loop_
 _atom_site_type_symbol
 _atom_site_label
 _atom_site_symmetry_multiplicity
 _atom_site_fract_x
 _atom_site_fract_y
 _atom_site_fract_z
 _atom_site_occupancy
 _atom_site_pbe_bader_charge
 _atom_site_pbe_bader_spin_density
 _atom_site_pbe_cm5_charge
 _atom_site_pbe_ddec_charge
 _atom_site_pbe_ddec_spin_density
 _atom_site_pbe_ddec_sum_bond_order
 _atom_site_pbe_magmom
Mn  Mn0  1  0.47184764  0.61156223  0.46910289  1  1.688643  3.70719  0.793873  1.254472  3.810852  2.648806  3.662
Mn  Mn1  1  0.00270047  0.53093447  0.14251678  1  1.685651  3.70783  0.794061  1.256046  3.809991  2.646539  3.663
Mn  Mn2  1  0.86022848  0.85752815  0.38838432  1  1.685409  3.707063  0.794295  1.255914  3.802579  2.648976  3.662
Ga  Ga3  1  0.26686729  0.45670678  0.57976910  1  1.825187  0.000309  0.593303  1.278553  -0.001332  2.729651  0.0
Ga  Ga4  1  0.52654795  0.37345448  0.53794396  1  1.908391  0.000204  0.630157  1.455227  -0.000355  2.750553  0.0
Ga  Ga5  1  0.68705782  0.42017655  0.87692114  1  1.82434  0.000307  0.593556  1.279051  -0.001339  2.728411  0.0
Ga  Ga6  1  0.98867994  0.46213320  0.83557374  1  1.906714  0.000207  0.630456  1.456783  -0.000354  2.749189  0.0
Ga  Ga7  1  0.81015560  0.12311713  0.54323344  1  1.826866  0.000306  0.593376  1.278515  -0.001337  2.728569  0.0
Ga  Ga8  1  0.15308379  0.16438561  0.62657146  1  1.907094  0.000209  0.629794  1.454697  -0.000353  2.751906  0.0
Ga  Ga9  1  0.72747935  0.54244975  0.41867776  1  1.837121  7.3e-05  0.586236  1.284232  -9.1e-05  2.767597  0.0
Ga  Ga10  1  0.30883171  0.58134501  0.12388907  1  1.835485  7.4e-05  0.586124  1.284021  -9.2e-05  2.768318  0.0
Ga  Ga11  1  0.18508046  0.87632523  0.45760220  1  1.836771  7.5e-05  0.586421  1.284022  -8.7e-05  2.767745  0.0
P  P12  1  0.55628369  0.61515509  0.67382162  1  3.618086  0.004066  0.39369  1.442097  0.007873  5.518532  0.005
P  P13  1  0.58623910  0.65935967  0.31386586  1  3.673645  0.009543  0.444222  1.554898  0.015741  5.447981  0.011
P  P14  1  0.88243997  0.32615576  0.94131549  1  3.617264  0.004098  0.393111  1.441395  0.007879  5.520501  0.005
P  P15  1  0.27233031  0.68615147  0.34555569  1  3.672175  0.009561  0.44475  1.555705  0.015733  5.449148  0.011
P  P16  1  0.94119615  0.05879161  0.38492651  1  3.615796  0.004076  0.393884  1.441321  0.007884  5.519734  0.005
P  P17  1  0.92681088  0.65460027  0.34063212  1  3.681765  0.009514  0.444369  1.557041  0.015775  5.445817  0.011
P  P18  1  0.44869603  0.37663579  0.33098872  1  3.613498  0.003656  0.404116  1.453618  0.007452  5.515499  0.004
P  P19  1  0.40727607  0.33752850  0.68799413  1  3.687522  5e-06  0.457264  1.558961  -8.6e-05  5.46903  0.0
P  P20  1  0.11780471  0.66905458  0.04579023  1  3.611665  0.003685  0.40488  1.456066  0.007459  5.511551  0.004
P  P21  1  0.71935279  0.31211260  0.64960549  1  3.69025  5e-06  0.457694  1.55835  -8.6e-05  5.470252  0.0
P  P22  1  0.07201233  0.95430574  0.62333686  1  3.615091  0.003632  0.404061  1.453461  0.007483  5.513978  0.004
P  P23  1  0.06982998  0.35050230  0.66256511  1  3.685639  5e-06  0.457253  1.559601  -8.6e-05  5.46819  0.0
H  H24  1  0.28651341  0.60027987  0.76504061  1  0.42856  5.4e-05  0.313087  0.287239  4.9e-05  0.953521  0.0
H  H25  1  0.41697738  0.65659682  0.76359983  1  0.482958  -2e-06  0.302153  0.303664  -0.000147  0.976626  0.0
H  H26  1  0.23433865  0.55424704  0.45173748  1  0.482418  0.000191  0.305061  0.261134  -0.000287  0.994077  0.0
H  H27  1  0.26326367  0.29945264  0.41050885  1  0.496415  1.2e-05  0.304597  0.299459  -7.7e-05  0.974649  0.0
H  H28  1  0.14657472  0.24307022  0.43052647  1  0.502225  2e-06  0.304961  0.298066  -1.3e-05  0.984129  0.0
H  H29  1  0.34961153  0.72695695  0.64870347  1  0.055859  -4.1e-05  0.116676  0.087203  -0.000297  0.98821  0.0
H  H30  1  0.27199337  0.74784272  0.72941045  1  0.062635  -4.1e-05  0.115642  0.096839  -2.4e-05  0.948798  0.0
H  H31  1  0.13078186  0.64548007  0.51472689  1  0.107508  0.000116  0.11485  0.113909  5.4e-05  0.998163  0.0
H  H32  1  0.09468907  0.55369189  0.57398428  1  0.057514  1.1e-05  0.114408  0.093063  5e-06  1.019803  0.0
H  H33  1  0.01377758  0.36609537  0.40427992  1  0.051988  -1.9e-05  0.115229  0.099613  -2e-05  1.008774  0.0
H  H34  1  0.02910780  0.42131257  0.30894567  1  0.06364  4.9e-05  0.113225  0.102602  -0.000143  0.979807  0.0
H  H35  1  0.04375044  0.23658735  0.25993471  1  0.077613  7e-06  0.116666  0.102131  -2.4e-05  0.954119  0.0
H  H36  1  0.17576142  0.35579513  0.29392488  1  0.067145  0.000274  0.114492  0.095304  -0.000132  0.981046  0.0
H  H37  1  0.52140656  0.23483137  0.83522172  1  0.413182  5.4e-05  0.313181  0.287875  4.9e-05  0.95228  0.0
H  H38  1  0.65330304  0.23625413  0.89285513  1  0.508288  -0.0  0.30156  0.302632  -0.000147  0.976959  0.0
H  H39  1  0.78263409  0.54816143  0.10246335  1  0.488012  0.000189  0.305117  0.261424  -0.000285  0.99495  0.0
H  H40  1  0.85270899  0.58946133  0.88888741  1  0.48214  1.3e-05  0.30478  0.30047  -7.7e-05  0.973226  0.0
H  H41  1  0.71602244  0.56945452  0.81253651  1  0.503937  2e-06  0.30474  0.297308  -1.3e-05  0.985433  0.0
H  H42  1  0.70088008  0.35109517  0.07816543  1  0.043809  -4.1e-05  0.116889  0.087775  -0.000296  0.987226  0.0
H  H43  1  0.54255598  0.27043454  0.01840830  1  0.074619  -4.1e-05  0.115672  0.097294  -2.4e-05  0.949208  0.0
H  H44  1  0.61611273  0.48520664  0.13075063  1  0.100182  0.000117  0.114658  0.113682  5.4e-05  0.998751  0.0
H  H45  1  0.52074916  0.42589512  0.97971720  1  0.075888  1.1e-05  0.114497  0.093279  5e-06  1.019483  0.0
H  H46  1  0.60954008  0.59567898  0.96195829  1  0.1102  -1.9e-05  0.115456  0.100391  -2e-05  1.008074  0.0
H  H47  1  0.72028530  0.69099195  0.11246487  1  0.081471  5e-05  0.113397  0.103208  -0.000143  0.979729  0.0
H  H48  1  0.78374761  0.74003140  0.97668441  1  0.083975  6e-06  0.11652  0.102184  -2.4e-05  0.953871  0.0
H  H49  1  0.88182822  0.70607223  0.06181478  1  0.055823  0.000274  0.114233  0.095394  -0.000132  0.980221  0.0
H  H50  1  0.68625750  0.16484231  0.39959941  1  0.422211  5.4e-05  0.312843  0.287038  4.9e-05  0.952423  0.0
H  H51  1  0.76057193  0.10721151  0.34344940  1  0.498309  -0.0  0.301765  0.303202  -0.000147  0.978153  0.0
H  H52  1  0.67996701  0.89751974  0.44564301  1  0.478808  0.000192  0.305041  0.260747  -0.000288  0.995572  0.0
H  H53  1  0.96362944  0.11097106  0.70046005  1  0.480435  1.3e-05  0.304724  0.299798  -7.7e-05  0.974198  0.0
H  H54  1  0.90338878  0.18744017  0.75684237  1  0.483615  2e-06  0.304832  0.297396  -1.3e-05  0.985494  0.0
H  H55  1  0.62289678  0.92186062  0.27308990  1  0.051788  -4e-05  0.116804  0.088033  -0.000297  0.987387  0.0
H  H56  1  0.52433933  0.98157685  0.25191371  1  0.053031  -4.2e-05  0.115287  0.096719  -2.4e-05  0.948963  0.0
H  H57  1  0.48521834  0.86934832  0.35434144  1  0.118641  0.000112  0.114566  0.113575  5.4e-05  0.997992  0.0
H  H58  1  0.54096636  0.02043966  0.44607107  1  0.092108  1.1e-05  0.114678  0.093238  5e-06  1.020069  0.0
H  H59  1  0.64754265  0.03831315  0.63369356  1  0.072588  -1.8e-05  0.11518  0.099394  -2e-05  1.009885  0.0
H  H60  1  0.60748894  0.88772193  0.57849626  1  0.089698  5.1e-05  0.113005  0.101954  -0.000142  0.979757  0.0
H  H61  1  0.80678459  0.02334869  0.76323827  1  0.083279  6e-06  0.116517  0.102674  -2.4e-05  0.953897  0.0
H  H62  1  0.81963415  0.93806756  0.64412214  1  0.068798  0.000272  0.114667  0.095831  -0.000131  0.979139  0.0
H  H63  1  0.71581285  0.40105009  0.23603216  1  0.433297  0.000117  0.309986  0.283205  -1.2e-05  0.959847  0.0
H  H64  1  0.58389779  0.34015022  0.23547666  1  0.491571  3.9e-05  0.299199  0.301139  -5.9e-05  0.984483  0.0
H  H65  1  0.76883254  0.45120217  0.55138955  1  0.448813  4e-06  0.30963  0.25486  -5.6e-05  0.978924  0.0
H  H66  1  0.73840197  0.70441067  0.59056391  1  0.482419  0.000212  0.302534  0.298131  -0.000299  0.979466  0.0
H  H67  1  0.85331456  0.75902875  0.56703892  1  0.496781  0.000616  0.302286  0.301224  6.8e-05  0.985748  0.0
H  H68  1  0.65251472  0.27379930  0.35183553  1  0.038872  2.6e-05  0.115129  0.084545  -2.5e-05  0.992176  0.0
H  H69  1  0.73237075  0.25409900  0.27337292  1  0.050866  8e-06  0.111928  0.09076  5e-06  0.953564  0.0
H  H70  1  0.87220086  0.35853221  0.48768771  1  0.10278  9e-06  0.111623  0.107481  6e-06  1.001811  0.0
H  H71  1  0.90662021  0.44985937  0.42769068  1  0.075239  4e-05  0.11511  0.093346  -2e-06  1.016874  0.0
H  H72  1  0.98500763  0.63611468  0.59129716  1  0.081895  5.9e-05  0.116998  0.102096  2.6e-05  1.005699  0.0
H  H73  1  0.97522507  0.58532770  0.69069748  1  0.041758  2.5e-05  0.10956  0.094178  1.3e-05  0.989951  0.0
H  H74  1  0.95855115  0.76816716  0.73740603  1  0.100518  7.3e-05  0.116083  0.101196  2.5e-05  0.952673  0.0
H  H75  1  0.82832165  0.64983449  0.70705571  1  0.052838  0.000112  0.111411  0.088754  -7e-06  0.977159  0.0
H  H76  1  0.47985479  0.76397051  0.16509795  1  0.424374  0.000119  0.31027  0.283697  -1.2e-05  0.96003  0.0
H  H77  1  0.34852162  0.76448066  0.10461509  1  0.493676  4e-05  0.299338  0.301435  -5.9e-05  0.983243  0.0
H  H78  1  0.21741241  0.44859233  0.89988048  1  0.449858  4e-06  0.308987  0.254589  -5.6e-05  0.979037  0.0
H  H79  1  0.14776175  0.40953453  0.11398497  1  0.488692  0.000206  0.302021  0.297837  -0.000299  0.980303  0.0
H  H80  1  0.28612717  0.43288144  0.19202265  1  0.493435  0.000614  0.302288  0.301387  7e-05  0.985774  0.0
H  H81  1  0.30103059  0.64810886  0.92200952  1  0.045773  2.6e-05  0.114828  0.084104  -2.4e-05  0.991983  0.0
H  H82  1  0.45936805  0.72644335  0.98087398  1  0.059659  8e-06  0.111571  0.090576  4e-06  0.953037  0.0
H  H83  1  0.38451881  0.51205245  0.87094178  1  0.09737  9e-06  0.111748  0.107716  6e-06  1.00204  0.0
H  H84  1  0.47888980  0.57195243  0.02224607  1  0.063609  4e-05  0.11496  0.09335  -2e-06  1.016587  0.0
H  H85  1  0.39335255  0.40831568  0.04468922  1  0.089587  5.8e-05  0.117077  0.101933  2.6e-05  1.006547  0.0
H  H86  1  0.28408230  0.30898989  0.89451966  1  0.066039  2.5e-05  0.109572  0.09358  1.3e-05  0.990034  0.0
H  H87  1  0.22071708  0.26237369  0.03073513  1  0.08508  7.4e-05  0.11641  0.102212  2.5e-05  0.952485  0.0
H  H88  1  0.12094390  0.29287235  0.94286123  1  0.036204  0.000113  0.11154  0.089468  -8e-06  0.977665  0.0
H  H89  1  0.31473068  0.83502399  0.59895753  1  0.417553  0.000117  0.310181  0.283708  -1.2e-05  0.959792  0.0
H  H90  1  0.24373963  0.89538887  0.65985693  1  0.508236  4e-05  0.299715  0.302646  -5.8e-05  0.983418  0.0
H  H91  1  0.31777653  0.10032227  0.54874704  1  0.465973  4e-06  0.30932  0.254917  -5.6e-05  0.979055  0.0
H  H92  1  0.03413448  0.88637855  0.29567494  1  0.48344  0.000213  0.302222  0.297933  -0.000298  0.979748  0.0
H  H93  1  0.09431662  0.80813260  0.24101589  1  0.500151  0.000616  0.302304  0.301086  6.9e-05  0.985428  0.0
H  H94  1  0.37879355  0.07812176  0.72618198  1  0.048618  2.6e-05  0.11486  0.084085  -2.5e-05  0.992026  0.0
H  H95  1  0.47831364  0.01932346  0.74587015  1  0.058986  8e-06  0.11167  0.090597  5e-06  0.952458  0.0
H  H96  1  0.51372380  0.12921208  0.64143566  1  0.116114  9e-06  0.111489  0.107069  6e-06  1.002819  0.0
H  H97  1  0.45678863  0.97786331  0.55010917  1  0.062457  4e-05  0.115249  0.093964  -3e-06  1.016432  0.0
H  H98  1  0.34892392  0.95514839  0.36386472  1  0.077262  5.9e-05  0.116849  0.102004  2.6e-05  1.005583  0.0
H  H99  1  0.39009416  0.10538542  0.41462921  1  0.075732  2.4e-05  0.109923  0.094633  1.3e-05  0.989072  0.0
H  H100  1  0.19054260  0.96933559  0.23182920  1  0.076926  7.4e-05  0.116544  0.101765  2.5e-05  0.95333  0.0
H  H101  1  0.17873681  0.05740665  0.35017210  1  0.081059  0.000109  0.11168  0.089352  -7e-06  0.977402  0.0
C  C102  1  0.28142712  0.68247313  0.66752928  1  0.272892  4e-06  -0.055564  -0.003539  -7.7e-05  3.879622  0.0
C  C103  1  0.16190089  0.59884481  0.55507168  1  0.251717  0.000102  -0.065502  -0.078851  8e-06  3.856985  0.0
C  C104  1  0.07494894  0.40444021  0.37608712  1  0.294451  0.000127  -0.060393  -0.067111  1.2e-05  3.855695  0.0
C  C105  1  0.12015651  0.32171825  0.32899081  1  0.270165  0.000146  -0.055071  0.008213  5.6e-05  3.831295  0.0
C  C106  1  0.61387920  0.33230748  0.01491684  1  0.256376  2e-06  -0.05617  -0.005259  -7.8e-05  3.880863  0.0
C  C107  1  0.60687603  0.44482645  0.04376929  1  0.257461  0.000101  -0.065  -0.077716  8e-06  3.856679  0.0
C  C108  1  0.69892867  0.62385947  0.02841008  1  0.235478  0.000128  -0.061124  -0.06973  1e-05  3.858457  0.0
C  C109  1  0.79114015  0.67096707  0.99271148  1  0.259348  0.000146  -0.054658  0.008406  5.6e-05  3.830249  0.0
C  C110  1  0.59906901  0.98512628  0.31740836  1  0.280786  4e-06  -0.055762  -0.004771  -7.8e-05  3.880858  0.0
C  C111  1  0.56300429  0.95632936  0.40097873  1  0.206224  0.000105  -0.064845  -0.076974  8e-06  3.856464  0.0
C  C112  1  0.67030980  0.97171759  0.59538038  1  0.264184  0.000128  -0.060329  -0.066072  1.2e-05  3.857403  0.0
C  C113  1  0.79816535  0.00726781  0.67814529  1  0.251  0.000146  -0.05539  0.005897  5.5e-05  3.831281  0.0
C  C114  1  0.72110555  0.31900849  0.33375748  1  0.274018  3.3e-05  -0.057243  -0.002207  3e-06  3.892557  0.0
C  C115  1  0.83978093  0.40409197  0.44664441  1  0.245189  5.6e-05  -0.065508  -0.074934  4.7e-05  3.863358  0.0
C  C116  1  0.92641574  0.59954980  0.62252352  1  0.306085  0.00013  -0.06086  -0.067926  0.000119  3.87004  0.0
C  C117  1  0.88172919  0.68264358  0.66963211  1  0.233096  8.9e-05  -0.055055  0.011268  5.9e-05  3.838437  0.0
C  C118  1  0.38761390  0.66613386  0.98536725  1  0.272699  3.3e-05  -0.056645  -0.001002  3e-06  3.890201  0.0
C  C119  1  0.39317630  0.55313208  0.95756215  1  0.256291  5.6e-05  -0.065578  -0.075564  4.7e-05  3.864176  0.0
C  C120  1  0.30355009  0.37719633  0.97695937  1  0.260738  0.000131  -0.061012  -0.066275  0.000119  3.868171  0.0
C  C121  1  0.21177262  0.33019791  0.01302521  1  0.278356  8.8e-05  -0.055391  0.009126  5.9e-05  3.838867  0.0
C  C122  1  0.40213914  0.01480243  0.68097776  1  0.249907  3.4e-05  -0.05669  -0.00089  3e-06  3.89068  0.0
C  C123  1  0.43573744  0.04259670  0.59587279  1  0.24812  5.6e-05  -0.06581  -0.07563  4.7e-05  3.863424  0.0
C  C124  1  0.32698868  0.02301377  0.40042429  1  0.263247  0.000131  -0.060764  -0.067765  0.000119  3.869061  0.0
C  C125  1  0.19926155  0.98711689  0.31735718  1  0.237661  8.9e-05  -0.055705  0.009888  5.9e-05  3.840963  0.0
N  N126  1  0.32430058  0.61691734  0.71636712  1  -1.161734  -0.000101  -0.585825  -0.573115  -0.000376  3.369648  0.0
N  N127  1  0.18001580  0.51184616  0.47808900  1  -1.142359  6e-05  -0.454902  -0.334821  -0.000196  3.500655  0.0
N  N128  1  0.19627924  0.31148093  0.42426774  1  -1.227184  -4.1e-05  -0.579371  -0.575755  -0.000264  3.317692  0.0
N  N129  1  0.60787700  0.28349726  0.90049310  1  -1.17027  -0.000109  -0.585435  -0.573188  -0.000381  3.367717  0.0
N  N130  1  0.70196294  0.52181825  0.03374446  1  -1.152447  5.7e-05  -0.454605  -0.33445  -0.0002  3.502959  0.0
N  N131  1  0.77197599  0.57569886  0.88717884  1  -1.211126  -4.2e-05  -0.579503  -0.57589  -0.000263  3.316344  0.0
N  N132  1  0.70747630  0.09957620  0.38303393  1  -1.16878  -0.000106  -0.585405  -0.572916  -0.00038  3.368249  0.0
N  N133  1  0.66805292  0.96629155  0.48800340  1  -1.137325  5.5e-05  -0.45492  -0.335694  -0.000196  3.503598  0.0
N  N134  1  0.88464673  0.11276640  0.68842704  1  -1.194667  -4.1e-05  -0.579091  -0.57403  -0.000264  3.316944  0.0
N  N135  1  0.67686042  0.38261694  0.28327720  1  -1.175404  -5.1e-05  -0.588547  -0.576331  -0.000217  3.373709  0.0
N  N136  1  0.82104898  0.49096847  0.52274507  1  -1.122171  0.000196  -0.454646  -0.325597  7.1e-05  3.507122  0.0
N  N137  1  0.80353706  0.69101753  0.57417405  1  -1.197635  0.001464  -0.582273  -0.578159  0.000874  3.314985  0.001
N  N138  1  0.39369080  0.71668442  0.09937831  1  -1.169307  -5.1e-05  -0.588968  -0.577219  -0.000217  3.371783  0.0
N  N139  1  0.29820907  0.47710572  0.96827326  1  -1.121618  0.000197  -0.454478  -0.325727  7.1e-05  3.507474  0.0
N  N140  1  0.22924223  0.42578951  0.11691610  1  -1.20639  0.001461  -0.58185  -0.578695  0.000871  3.315359  0.001
N  N141  1  0.29424693  0.90072591  0.61739999  1  -1.157764  -5.1e-05  -0.589258  -0.578595  -0.000218  3.375804  0.0
N  N142  1  0.33018696  0.03187615  0.50901304  1  -1.142517  0.000197  -0.454502  -0.325731  7e-05  3.50827  0.0
N  N143  1  0.11262647  0.88331776  0.30902320  1  -1.206656  0.00146  -0.582147  -0.577687  0.000873  3.314637  0.001
O  O144  1  0.42152569  0.54154020  0.56751169  1  -1.404552  -0.000557  -0.325562  -0.807257  -0.01067  2.311718  -0.018
O  O145  1  0.61161366  0.69653228  0.62996340  1  -1.37037  0.039304  -0.357014  -0.726603  0.023285  2.115045  0.011
O  O146  1  0.60643580  0.52661075  0.66389419  1  -1.412214  0.000461  -0.31718  -0.780441  -0.000679  2.3178  0.0
O  O147  1  0.56835611  0.67539521  0.79098659  1  -1.452716  -0.009227  -0.371551  -0.734711  -0.012077  2.016772  -0.009
O  O148  1  0.56334314  0.69394741  0.42161629  1  -1.332881  0.05841  -0.363674  -0.737573  0.033104  2.266609  0.02
O  O149  1  0.67406605  0.77675378  0.33409542  1  -1.445651  0.070732  -0.364847  -0.791753  0.052836  2.18621  0.04
O  O150  1  0.47099846  0.59651211  0.19956617  1  -1.467369  0.011181  -0.333796  -0.797478  0.007568  2.352797  0.009
O  O151  1  0.64223560  0.57931616  0.31146612  1  -1.442539  0.006226  -0.326942  -0.793273  0.003684  2.367845  0.005
O  O152  1  0.85391975  0.43243615  0.97406959  1  -1.399801  -0.000584  -0.325357  -0.807674  -0.010711  2.312179  -0.018
O  O153  1  0.98155373  0.36998381  0.06654226  1  -1.369336  0.039031  -0.357232  -0.726743  0.02321  2.114486  0.011
O  O154  1  0.94256014  0.33617272  0.86274455  1  -1.41555  0.00047  -0.316676  -0.780487  -0.000672  2.318444  0.0
O  O155  1  0.77738384  0.20890723  0.88427937  1  -1.453231  -0.009279  -0.37159  -0.734307  -0.012118  2.01711  -0.009
O  O156  1  0.14164386  0.57843172  0.27240333  1  -1.332857  0.058192  -0.363641  -0.737889  0.032999  2.267086  0.02
O  O157  1  0.33990988  0.66587866  0.44264042  1  -1.445084  0.070618  -0.365264  -0.792163  0.052731  2.185931  0.039
O  O158  1  0.27144758  0.80047765  0.39710262  1  -1.468257  0.011198  -0.333911  -0.797724  0.007558  2.354209  0.009
O  O159  1  0.33075098  0.68853802  0.26791309  1  -1.442789  0.006208  -0.327054  -0.794083  0.003671  2.369392  0.005
O  O160  1  0.87989431  0.02600094  0.45844708  1  -1.394933  -0.000551  -0.325058  -0.807121  -0.010651  2.312301  -0.018
O  O161  1  0.91512225  0.93357535  0.30350591  1  -1.368863  0.039295  -0.357826  -0.727466  0.023457  2.115007  0.011
O  O162  1  0.07987589  0.13739632  0.47351121  1  -1.425155  0.000478  -0.316586  -0.779995  -0.000676  2.319229  0.0
O  O163  1  0.89314504  0.11583382  0.32472648  1  -1.448406  -0.009222  -0.37209  -0.734617  -0.012054  2.016192  -0.009
O  O164  1  0.86917947  0.72764341  0.30594843  1  -1.330848  0.058385  -0.363389  -0.737846  0.033143  2.267983  0.02
O  O165  1  0.89738728  0.55744093  0.22334200  1  -1.446938  0.070777  -0.3652  -0.792901  0.052889  2.185883  0.04
O  O166  1  0.87444791  0.60306545  0.40344721  1  -1.468199  0.011236  -0.334051  -0.798181  0.007583  2.352807  0.009
O  O167  1  0.06283400  0.73237527  0.42075806  1  -1.45226  0.006222  -0.326865  -0.794012  0.003678  2.367431  0.005
O  O168  1  0.58292978  0.45950030  0.43314384  1  -1.456867  0.014623  -0.321493  -0.857909  0.012429  2.358729  0.01
O  O169  1  0.39970017  0.30419595  0.38686329  1  -1.393279  0.00242  -0.328421  -0.762871  0.001096  2.193871  0.002
O  O170  1  0.38764031  0.45594720  0.33001776  1  -1.384437  0.0775  -0.359736  -0.754616  0.055855  2.234983  0.041
O  O171  1  0.43225821  0.30452719  0.21429977  1  -1.461469  0.001222  -0.384423  -0.74953  -0.000242  2.002546  0.001
O  O172  1  0.42449396  0.29000974  0.58038132  1  -1.438731  0.000114  -0.325665  -0.80019  7.4e-05  2.320642  0.0
O  O173  1  0.31825542  0.22642917  0.68063739  1  -1.428321  -8.4e-05  -0.327165  -0.789586  -0.000171  2.253878  0.0
O  O174  1  0.52309896  0.40229752  0.80216269  1  -1.467736  -0.000249  -0.331711  -0.794536  -0.000239  2.340057  0.0
O  O175  1  0.35111078  0.41655408  0.68395327  1  -1.449169  -0.001224  -0.324961  -0.804848  -0.001667  2.393806  -0.001
O  O176  1  0.14981658  0.56684932  0.02645951  1  -1.452789  0.014551  -0.321933  -0.859078  0.012435  2.359681  0.01
O  O177  1  0.01296875  0.61321356  0.91749121  1  -1.396505  0.002418  -0.328456  -0.763886  0.001093  2.193839  0.002
O  O178  1  0.05768893  0.67005663  0.12605285  1  -1.380425  0.077391  -0.359786  -0.755394  0.055886  2.234235  0.041
O  O179  1  0.21810347  0.78573889  0.09036876  1  -1.46271  0.001222  -0.385204  -0.750582  -0.000236  2.000249  0.001
O  O180  1  0.84418219  0.41975612  0.70976062  1  -1.439366  0.000114  -0.325339  -0.800012  7.5e-05  2.322117  0.0
O  O181  1  0.63771801  0.31947310  0.54586283  1  -1.429531  -8.4e-05  -0.327596  -0.789751  -0.00017  2.252989  0.0
O  O182  1  0.72106240  0.19797260  0.60022941  1  -1.468951  -0.000249  -0.331982  -0.794397  -0.00024  2.341203  0.0
O  O183  1  0.66711622  0.31605684  0.73258731  1  -1.447114  -0.001221  -0.325049  -0.804911  -0.001664  2.395196  -0.001
O  O184  1  0.12362951  0.97392857  0.54070556  1  -1.449841  0.01445  -0.321541  -0.857915  0.012335  2.359231  0.01
O  O185  1  0.09529720  0.08255085  0.69577155  1  -1.394723  0.002428  -0.327824  -0.762118  0.001102  2.193148  0.002
O  O186  1  0.93171195  0.87391158  0.54385034  1  -1.391102  0.077703  -0.359686  -0.755364  0.056066  2.237005  0.041
O  O187  1  0.12763161  0.90961652  0.69538305  1  -1.459815  0.001219  -0.384952  -0.749977  -0.000236  2.000346  0.001
O  O188  1  0.13441762  0.29027836  0.70998389  1  -1.435853  0.000114  -0.325268  -0.799618  7.4e-05  2.320839  0.0
O  O189  1  0.09198707  0.45426455  0.77371483  1  -1.425427  -8.4e-05  -0.327369  -0.790885  -0.00017  2.253447  0.0
O  O190  1  0.12092128  0.39989046  0.59779710  1  -1.465923  -0.000248  -0.331628  -0.794628  -0.000239  2.341469  0.0
O  O191  1  0.93460295  0.26756433  0.58355950  1  -1.454139  -0.001222  -0.325349  -0.805431  -0.001664  2.393223  -0.001
