# generated using pymatgen
data_CdH12C16(N5O3)2
_symmetry_space_group_name_H-M   'P 1'
_cell_length_a   7.72948131
_cell_length_b   7.45163715
_cell_length_c   9.71437466
_cell_angle_alpha   83.45057141
_cell_angle_beta   65.78476909
_cell_angle_gamma   80.43348787
_symmetry_Int_Tables_number   1
_chemical_formula_structural   CdH12C16(N5O3)2
_chemical_formula_sum   'Cd1 H12 C16 N10 O6'
_cell_volume   502.53790469
_cell_formula_units_Z   1
loop_
 _symmetry_equiv_pos_site_id
 _symmetry_equiv_pos_as_xyz
  1  'x, y, z'
loop_
 _atom_site_type_symbol
 _atom_site_label
 _atom_site_symmetry_multiplicity
 _atom_site_fract_x
 _atom_site_fract_y
 _atom_site_fract_z
 _atom_site_occupancy
 _atom_site_hle17_bader_spin_density
 _atom_site_hle17_ddec_charge
 _atom_site_hle17_ddec_spin_density
 _atom_site_hle17_ddec_sum_bond_order
 _atom_site_hle17_magmom
 _atom_site_hse06_10hf_bader_spin_density
 _atom_site_hse06_10hf_ddec_charge
 _atom_site_hse06_10hf_ddec_spin_density
 _atom_site_hse06_10hf_ddec_sum_bond_order
 _atom_site_hse06_10hf_magmom
 _atom_site_hse06_bader_spin_density
 _atom_site_hse06_ddec_charge
 _atom_site_hse06_ddec_spin_density
 _atom_site_hse06_ddec_sum_bond_order
 _atom_site_hse06_magmom
 _atom_site_pbe_bader_spin_density
 _atom_site_pbe_cm5_charge
 _atom_site_pbe_ddec_charge
 _atom_site_pbe_ddec_spin_density
 _atom_site_pbe_ddec_sum_bond_order
 _atom_site_pbe_magmom
Cd  Cd0  1  0.50002417  0.49998948  0.49999637  1  0  1.230317  0  1.83662  0  0  1.060515  0  2.331208  0  0  1.105948  0  2.278533  0  0  0.842117  1.028507  0  2.36721  0
H  H1  1  0.68822572  0.47380985  0.96108334  1  0  0.130109  0  0.952968  0  0  0.149189  0  1.012454  0  0  0.151449  0  1.011725  0  0  0.09606  0.147573  0  1.012929  0
H  H2  1  0.31177696  0.52620137  0.03891423  1  0  0.129826  0  0.953264  0  0  0.148886  0  1.012792  0  0  0.151148  0  1.012059  0  0  0.095924  0.147271  0  1.013263  0
H  H3  1  0.59605327  0.26066859  0.02031986  1  0  0.133385  0  0.937635  0  0  0.147574  0  1.006206  0  0  0.149531  0  1.005218  0  0  0.098091  0.146134  0  1.006962  0
H  H4  1  0.40394005  0.73934799  0.97968111  1  0  0.133439  0  0.937538  0  0  0.147633  0  1.006096  0  0  0.149576  0  1.005122  0  0  0.098104  0.146192  0  1.006854  0
H  H5  1  0.63172945  0.35495284  0.83801475  1  0  0.144099  0  0.941066  0  0  0.16107  0  1.00439  0  0  0.163367  0  1.003607  0  0  0.101292  0.159424  0  1.004966  0
H  H6  1  0.36825720  0.64507049  0.16198766  1  0  0.14416  0  0.941035  0  0  0.161085  0  1.004397  0  0  0.163382  0  1.003607  0  0  0.10128  0.159436  0  1.004972  0
H  H7  1  0.18347998  0.83782535  0.76387761  1  0  0.14329  0  0.935311  0  0  0.149575  0  0.996873  0  0  0.153436  0  0.994243  0  0  0.125015  0.146751  0  0.998882  0
H  H8  1  0.81651313  0.16218978  0.23610192  1  0  0.143165  0  0.935296  0  0  0.149461  0  0.996872  0  0  0.15332  0  0.994272  0  0  0.125014  0.14664  0  0.998883  0
H  H9  1  0.43139307  0.04416904  0.71717264  1  0  0.136404  0  0.928678  0  0  0.142333  0  0.990885  0  0  0.146033  0  0.987833  0  0  0.13613  0.139675  0  0.993172  0
H  H10  1  0.56859223  0.95583517  0.28283080  1  0  0.136506  0  0.928564  0  0  0.142434  0  0.990778  0  0  0.146137  0  0.987724  0  0  0.136158  0.139775  0  0.993063  0
H  H11  1  0.01479515  0.49197254  0.85286016  1  0  0.133164  0  0.947956  0  0  0.139649  0  1.013156  0  0  0.143492  0  1.00954  0  0  0.133304  0.136902  0  1.015803  0
H  H12  1  0.98519572  0.50803173  0.14714365  1  0  0.133186  0  0.947791  0  0  0.139642  0  1.013013  0  0  0.143487  0  1.009391  0  0  0.133296  0.136898  0  1.015662  0
C  C13  1  0.25558678  0.24076303  0.43731922  1  0  0.512622  0  3.993792  0  0  0.471738  0  4.276971  0  0  0.497606  0  4.290982  0  0  0.304346  0.454046  0  4.266999  0
C  C14  1  0.74442848  0.75920743  0.56269146  1  0  0.512502  0  3.993847  0  0  0.471621  0  4.277027  0  0  0.497487  0  4.291033  0  0  0.304215  0.453929  0  4.267059  0
C  C15  1  0.93842198  0.27055372  0.46828397  1  0  0.526404  0  3.987307  0  0  0.484045  0  4.273991  0  0  0.50985  0  4.286999  0  0  0.308589  0.466429  0  4.264599  0
C  C16  1  0.06159998  0.72939909  0.53173032  1  0  0.526955  0  3.986533  0  0  0.484613  0  4.273187  0  0  0.510415  0  4.286197  0  0  0.30886  0.466993  0  4.263793  0
C  C17  1  0.69113383  0.33929120  0.92456648  1  0  -0.351794  0  3.688527  0  0  -0.431793  0  3.920203  0  0  -0.435367  0  3.928425  0  0  -0.241202  -0.428918  0  3.914416  0
C  C18  1  0.30886637  0.66072682  0.07543229  1  0  -0.351536  0  3.688587  0  0  -0.431456  0  3.920222  0  0  -0.435027  0  3.928468  0  0  -0.241016  -0.428576  0  3.914431  0
C  C19  1  0.89215396  0.24451227  0.86455352  1  0  0.12737  0  3.720386  0  0  0.146031  0  3.966781  0  0  0.148105  0  3.988256  0  0  0.020708  0.14436  0  3.952246  0
C  C20  1  0.10783738  0.75549197  0.13543984  1  0  0.127381  0  3.720401  0  0  0.14598  0  3.966772  0  0  0.148055  0  3.98824  0  0  0.02065  0.144307  0  3.952234  0
C  C21  1  0.94824081  0.05787217  0.83634458  1  0  0.018795  0  3.673921  0  0  -0.003278  0  3.939254  0  0  -0.005412  0  3.960248  0  0  0.083017  -0.001876  0  3.925316  0
C  C22  1  0.05175346  0.94214029  0.16364925  1  0  0.018575  0  3.673591  0  0  -0.003383  0  3.938837  0  0  -0.005514  0  3.95983  0  0  0.083048  -0.001979  0  3.924899  0
C  C23  1  0.14033755  0.98169276  0.78653081  1  0  -0.103261  0  3.733625  0  0  -0.131811  0  4.005433  0  0  -0.132007  0  4.022398  0  0  -0.066513  -0.131823  0  3.994253  0
C  C24  1  0.85964083  0.01830585  0.21345872  1  0  -0.102944  0  3.733882  0  0  -0.131544  0  4.005687  0  0  -0.131758  0  4.022664  0  0  -0.066499  -0.131562  0  3.994508  0
C  C25  1  0.27901902  0.09147453  0.75897689  1  0  0.010355  0  3.563194  0  0  -0.036227  0  3.833933  0  0  -0.033112  0  3.84693  0  0  0.038563  -0.038292  0  3.825615  0
C  C26  1  0.72098819  0.90854626  0.24101231  1  0  0.010135  0  3.563582  0  0  -0.03646  0  3.834363  0  0  -0.033347  0  3.847369  0  0  0.038504  -0.038523  0  3.826039  0
C  C27  1  0.03942075  0.34672736  0.83635878  1  0  -0.053568  0  3.524449  0  0  -0.104221  0  3.786252  0  0  -0.101707  0  3.799187  0  0  0.038279  -0.105616  0  3.777716  0
C  C28  1  0.96057478  0.65328647  0.16363352  1  0  -0.053679  0  3.524437  0  0  -0.10429  0  3.786223  0  0  -0.101772  0  3.799149  0  0  0.038243  -0.105688  0  3.777693  0
N  N29  1  0.41218018  0.27447948  0.40652578  1  0  -0.623996  0  2.755151  0  0  -0.571779  0  3.024383  0  0  -0.594623  0  3.028555  0  0  -0.396908  -0.555924  0  3.021263  0
N  N30  1  0.58784474  0.72551424  0.59347173  1  0  -0.623826  0  2.755621  0  0  -0.571572  0  3.024789  0  0  -0.594408  0  3.028955  0  0  -0.396804  -0.555721  0  3.021673  0
N  N31  1  0.09311295  0.18402132  0.47620283  1  0  -0.455924  0  3.349185  0  0  -0.400408  0  3.613852  0  0  -0.427468  0  3.624873  0  0  -0.304447  -0.381371  0  3.605599  0
N  N32  1  0.90693524  0.81593721  0.52379996  1  0  -0.45606  0  3.348311  0  0  -0.400549  0  3.612956  0  0  -0.427617  0  3.623987  0  0  -0.304395  -0.381521  0  3.604733  0
N  N33  1  0.78943354  0.33322045  0.46558511  1  0  -0.625073  0  2.829602  0  0  -0.573333  0  3.114996  0  0  -0.596636  0  3.118198  0  0  -0.389783  -0.557056  0  3.112482  0
N  N34  1  0.21058953  0.66672284  0.53443689  1  0  -0.625527  0  2.829362  0  0  -0.573797  0  3.114774  0  0  -0.597093  0  3.117947  0  0  -0.390029  -0.557522  0  3.112273  0
N  N35  1  0.80852096  0.93767548  0.85562230  1  0  0.507486  0  3.890115  0  0  0.531473  0  4.199054  0  0  0.553468  0  4.20386  0  0  0.055183  0.516615  0  4.19619  0
N  N36  1  0.19145165  0.06234904  0.14437704  1  0  0.507725  0  3.890062  0  0  0.531605  0  4.199078  0  0  0.553597  0  4.203874  0  0  0.055133  0.516747  0  4.196217  0
N  N37  1  0.22745566  0.27353349  0.78285184  1  0  0.295956  0  3.756244  0  0  0.345514  0  4.025072  0  0  0.348751  0  4.048492  0  0  -0.103486  0.342909  0  4.009131  0
N  N38  1  0.77253801  0.72647351  0.21714265  1  0  0.296005  0  3.755871  0  0  0.345575  0  4.024688  0  0  0.348813  0  4.048104  0  0  -0.103424  0.342968  0  4.008747  0
O  O39  1  0.85046326  0.77160862  0.88048958  1  0  -0.379502  0  1.778696  0  0  -0.360637  0  1.997837  0  0  -0.372685  0  1.994265  0  0  -0.131845  -0.352868  0  2.00065  0
O  O40  1  0.14951470  0.22839823  0.11951276  1  0  -0.379712  0  1.779142  0  0  -0.360734  0  1.998191  0  0  -0.37279  0  1.994665  0  0  -0.131879  -0.352976  0  2.001012  0
O  O41  1  0.65711601  0.00532062  0.84404019  1  0  -0.332131  0  1.775298  0  0  -0.314433  0  1.993439  0  0  -0.323602  0  1.988655  0  0  -0.105394  -0.308344  0  1.996941  0
O  O42  1  0.34286660  0.99469996  0.15596780  1  0  -0.332179  0  1.774995  0  0  -0.314415  0  1.99311  0  0  -0.32359  0  1.98833  0  0  -0.105317  -0.308321  0  1.996608  0
O  O43  1  0.35812066  0.37879681  0.75538924  1  0  -0.509341  0  1.768284  0  0  -0.470587  0  2.012055  0  0  -0.495485  0  2.01106  0  0  -0.220095  -0.453029  0  2.012149  0
O  O44  1  0.64187450  0.62120751  0.24461223  1  0  -0.509265  0  1.768275  0  0  -0.470534  0  2.012068  0  0  -0.495432  0  2.01107  0  0  -0.220088  -0.452977  0  2.012165  0
