# generated using pymatgen
data_ZnH12C18(N3O2)2
_symmetry_space_group_name_H-M   'P 1'
_cell_length_a   10.17554238
_cell_length_b   14.72518370
_cell_length_c   16.70917300
_cell_angle_alpha   89.99984761
_cell_angle_beta   90.00014436
_cell_angle_gamma   89.75647051
_symmetry_Int_Tables_number   1
_chemical_formula_structural   ZnH12C18(N3O2)2
_chemical_formula_sum   'Zn4 H48 C72 N24 O16'
_cell_volume   2503.62524044
_cell_formula_units_Z   4
loop_
 _symmetry_equiv_pos_site_id
 _symmetry_equiv_pos_as_xyz
  1  'x, y, z'
loop_
 _atom_site_type_symbol
 _atom_site_label
 _atom_site_symmetry_multiplicity
 _atom_site_fract_x
 _atom_site_fract_y
 _atom_site_fract_z
 _atom_site_occupancy
 _atom_site_pbe_bader_charge
 _atom_site_pbe_bader_spin_density
 _atom_site_pbe_cm5_charge
 _atom_site_pbe_ddec_charge
 _atom_site_pbe_ddec_spin_density
 _atom_site_pbe_ddec_sum_bond_order
 _atom_site_pbe_magmom
Zn  Zn0  1  0.95735940  0.34140765  0.25245750  1  1.273773  0  0.694357  0.763282  0  2.356326  0
Zn  Zn1  1  0.45735755  0.84140732  0.74754386  1  1.273652  0  0.69435  0.763212  0  2.35635  0
Zn  Zn2  1  0.46650077  0.79624987  0.25358829  1  1.269038  0  0.699253  0.760931  0  2.380531  0
Zn  Zn3  1  0.96650558  0.29624937  0.74640900  1  1.268926  0  0.699252  0.760979  0  2.38047  0
H  H4  1  0.35538035  0.91870786  0.91884121  1  0.163718  0  0.148661  0.123052  0  1.000744  0
H  H5  1  0.85537172  0.41869853  0.08116160  1  0.163452  0  0.148637  0.12303  0  1.000818  0
H  H6  1  0.17511954  0.05635187  0.14812051  1  0.125875  0  0.107676  0.108449  0  1.018863  0
H  H7  1  0.67512021  0.55635163  0.85187927  1  0.125897  0  0.107653  0.108416  0  1.01879  0
H  H8  1  0.21789169  0.96234191  0.02796093  1  0.060837  0  0.109446  0.116203  0  0.994272  0
H  H9  1  0.71789151  0.46234141  0.97203856  1  0.060845  0  0.109457  0.116217  0  0.994222  0
H  H10  1  0.11495453  0.09519161  0.77972798  1  0.201429  0  0.143993  0.126452  0  1.012661  0
H  H11  1  0.61496544  0.59519530  0.22027341  1  0.201032  0  0.144015  0.126461  0  1.012762  0
H  H12  1  0.09887398  0.28832369  0.99862307  1  0.090508  0  0.101086  0.105271  0  1.048156  0
H  H13  1  0.59887814  0.78832263  0.00137664  1  0.090521  0  0.101096  0.105285  0  1.048205  0
H  H14  1  0.15492190  0.19915234  0.87877468  1  0.111012  0  0.110566  0.126584  0  1.017509  0
H  H15  1  0.65492752  0.69915091  0.12122593  1  0.111014  0  0.110565  0.126582  0  1.017523  0
H  H16  1  0.12928573  0.47283779  0.64845953  1  0.137454  0  0.107406  0.125799  0  1.034758  0
H  H17  1  0.62929818  0.97283089  0.35154279  1  0.137639  0  0.107372  0.125727  0  1.03478  0
H  H18  1  0.29996719  0.66212512  0.47893998  1  0.121262  0  0.104561  0.119863  0  1.041095  0
H  H19  1  0.79996618  0.16212600  0.52105975  1  0.12128  0  0.10456  0.119845  0  1.04109  0
H  H20  1  0.02877005  0.38939255  0.53548388  1  0.126499  0  0.10132  0.099758  0  1.059155  0
H  H21  1  0.52877705  0.88938736  0.46451908  1  0.126507  0  0.101258  0.099747  0  1.059116  0
H  H22  1  0.27453525  0.52045082  0.73204182  1  0.240243  0  0.137514  0.125534  0  1.056242  0
H  H23  1  0.77454306  0.02045245  0.26795640  1  0.240282  0  0.137554  0.125618  0  1.05622  0
H  H24  1  0.19907844  0.57855684  0.36846954  1  0.111268  0  0.101204  0.100884  0  1.061361  0
H  H25  1  0.69907786  0.07856146  0.63153022  1  0.11144  0  0.101198  0.100842  0  1.06136  0
H  H26  1  0.31169796  0.75769352  0.58875561  1  0.187482  0  0.154103  0.138914  0  0.98934  0
H  H27  1  0.81170242  0.25768997  0.41124870  1  0.187398  0  0.154046  0.138861  0  0.989299  0
H  H28  1  0.37089673  0.71867373  0.07694222  1  0.196051  0  0.15115  0.130758  0  0.978141  0
H  H29  1  0.87089832  0.21867202  0.92305629  1  0.195959  0  0.151115  0.130786  0  0.978103  0
H  H30  1  0.31492519  0.88165509  0.40998360  1  0.216544  0  0.154838  0.140601  0  0.986725  0
H  H31  1  0.81492739  0.38165915  0.59001624  1  0.216617  0  0.154842  0.14058  0  0.986671  0
H  H32  1  0.19118642  0.51091457  0.21526754  1  0.200967  0  0.146897  0.137096  0  1.001685  0
H  H33  1  0.69118450  0.01091600  0.78472758  1  0.200947  0  0.146887  0.137053  0  1.001709  0
H  H34  1  0.29207137  0.11973537  0.26710308  1  0.257925  0  0.144491  0.1347  0  1.016418  0
H  H35  1  0.79207156  0.61973820  0.73290033  1  0.257945  0  0.144469  0.134769  0  1.01629  0
H  H36  1  0.41780232  0.57932892  0.98880682  1  0.097485  0  0.100513  0.103962  0  1.057183  0
H  H37  1  0.91780518  0.07932454  0.01118671  1  0.097452  0  0.10053  0.104046  0  1.057111  0
H  H38  1  0.04213471  0.51794373  0.09482339  1  0.061325  0  0.104392  0.105144  0  1.026779  0
H  H39  1  0.54213427  0.01794276  0.90517148  1  0.061229  0  0.104386  0.105128  0  1.026842  0
H  H40  1  0.12804602  0.16220696  0.34737318  1  0.111125  0  0.107858  0.130038  0  1.038849  0
H  H41  1  0.62804294  0.66221005  0.65262807  1  0.111254  0  0.107818  0.129948  0  1.038941  0
H  H42  1  0.31272615  0.98090337  0.51912653  1  0.122237  0  0.104092  0.118004  0  1.04684  0
H  H43  1  0.81272693  0.48090912  0.48087726  1  0.122376  0  0.104062  0.118029  0  1.046881  0
H  H44  1  0.35385551  0.49434108  0.86634240  1  0.103684  0  0.111288  0.114512  0  0.997394  0
H  H45  1  0.85385824  0.99433486  0.13365125  1  0.103965  0  0.111293  0.114486  0  0.997394  0
H  H46  1  0.98150987  0.42966970  0.97120992  1  0.118164  0  0.102903  0.097669  0  1.024357  0
H  H47  1  0.48151204  0.92966475  0.02878408  1  0.118172  0  0.102887  0.097689  0  1.024352  0
H  H48  1  0.02504821  0.24647475  0.45991896  1  0.115447  0  0.101297  0.098897  0  1.061896  0
H  H49  1  0.52504763  0.74647681  0.54008133  1  0.115371  0  0.101268  0.098928  0  1.06193  0
H  H50  1  0.20845153  0.06479967  0.62898035  1  0.143602  0  0.101438  0.101752  0  1.060161  0
H  H51  1  0.70845223  0.56480564  0.37102185  1  0.143598  0  0.101412  0.101785  0  1.060107  0
C  C52  1  0.30376945  0.95082826  0.86966575  1  0.985651  0  0.16309  0.085166  0  3.881344  0
C  C53  1  0.80376395  0.45082286  0.13033690  1  0.985988  0  0.163094  0.085104  0  3.881425  0
C  C54  1  0.18942573  0.07469037  0.94556332  1  0.238189  0  0.088493  0.156174  0  4.04378  0
C  C55  1  0.68943009  0.57469050  0.05443584  1  0.238055  0  0.088586  0.156336  0  4.043643  0
C  C56  1  0.10413779  0.23463548  0.15487103  1  1.595149  0  0.198194  0.572374  0  4.23019  0
C  C57  1  0.60412860  0.73463935  0.84513181  1  1.595567  0  0.198256  0.572654  0  4.230003  0
C  C58  1  0.13397963  0.17871309  0.08156767  1  -0.050436  0  -0.010405  -0.023575  0  3.937385  0
C  C59  1  0.63398155  0.67871468  0.91843236  1  -0.050655  0  -0.010375  -0.023517  0  3.937443  0
C  C60  1  0.16915131  0.08690862  0.08894279  1  -0.049677  0  -0.072452  -0.061828  0  3.944405  0
C  C61  1  0.66915320  0.58691091  0.91105870  1  -0.049805  0  -0.072474  -0.061856  0  3.94451  0
C  C62  1  0.19469350  0.03428430  0.02132972  1  0.025709  0  -0.091132  -0.173879  0  3.993165  0
C  C63  1  0.69469469  0.53428368  0.97866895  1  0.025659  0  -0.091126  -0.173897  0  3.993085  0
C  C64  1  0.18065813  0.04056755  0.79790075  1  0.913466  0  0.161159  0.086661  0  3.867209  0
C  C65  1  0.68066308  0.54056927  0.20209908  1  0.913931  0  0.161108  0.086615  0  3.867324  0
C  C66  1  0.12656713  0.21727534  0.00512996  1  0.054078  0  -0.082911  -0.077617  0  3.967829  0
C  C67  1  0.62657132  0.71727602  0.99487235  1  0.054086  0  -0.082899  -0.077645  0  3.967792  0
C  C68  1  0.15660095  0.16646485  0.93723303  1  -0.079295  0  -0.094814  -0.183071  0  3.996498  0
C  C69  1  0.65660634  0.66646291  0.06276766  1  -0.079325  0  -0.094873  -0.183137  0  3.996544  0
C  C70  1  0.10428523  0.47898748  0.44462296  1  0.056531  0  -0.016762  -0.034743  0  3.966453  0
C  C71  1  0.60428767  0.97898678  0.55538050  1  0.056533  0  -0.016831  -0.034971  0  3.966607  0
C  C72  1  0.03597356  0.42707263  0.38010571  1  1.529643  0  0.202342  0.571661  0  4.187093  0
C  C73  1  0.53597528  0.92707037  0.61989657  1  1.529573  0  0.202393  0.571792  0  4.187208  0
C  C74  1  0.18173094  0.55547394  0.42946719  1  -0.040308  0  -0.07742  -0.062533  0  3.939054  0
C  C75  1  0.68173111  0.05547670  0.57053440  1  -0.040411  0  -0.077396  -0.062378  0  3.93889  0
C  C76  1  0.14307905  0.49675181  0.58728473  1  0.002382  0  -0.094684  -0.172479  0  3.963217  0
C  C77  1  0.64308880  0.99674541  0.41271576  1  0.002501  0  -0.09461  -0.172282  0  3.963133  0
C  C78  1  0.21759413  0.57423755  0.57109838  1  0.178286  0  0.095236  0.172711  0  4.014008  0
C  C79  1  0.71759768  0.07423598  0.42890142  1  0.178384  0  0.095229  0.172649  0  4.014111  0
C  C80  1  0.23833772  0.60359038  0.49248645  1  0.040513  0  -0.090777  -0.168711  0  3.952374  0
C  C81  1  0.73833667  0.10358926  0.50751272  1  0.040429  0  -0.090824  -0.168754  0  3.952459  0
C  C82  1  0.08689197  0.44991622  0.52386688  1  -0.12341  0  -0.084812  -0.083962  0  3.982469  0
C  C83  1  0.58689901  0.94991439  0.47613603  1  -0.1236  0  -0.084791  -0.083998  0  3.98258  0
C  C84  1  0.30032664  0.58878101  0.71222630  1  0.90872  0  0.152018  0.080269  0  3.87555  0
C  C85  1  0.80033452  0.08878258  0.28777420  1  0.908697  0  0.151923  0.080015  0  3.87564  0
C  C86  1  0.31696456  0.70985652  0.63782034  1  0.991802  0  0.169812  0.101127  0  3.866677  0
C  C87  1  0.81696980  0.20985583  0.36218410  1  0.991837  0  0.16987  0.101213  0  3.866709  0
C  C88  1  0.33386085  0.67928904  0.12681484  1  0.958871  0  0.163823  0.08837  0  3.882129  0
C  C89  1  0.83386224  0.17928749  0.87318191  1  0.959279  0  0.163798  0.088324  0  3.882341  0
C  C90  1  0.32397768  0.92935658  0.36106132  1  0.965047  0  0.170019  0.100188  0  3.872033  0
C  C91  1  0.82397812  0.42936049  0.63894141  1  0.964836  0  0.170077  0.100392  0  3.871992  0
C  C92  1  0.24134500  0.57309700  0.19798419  1  0.93258  0  0.161899  0.080977  0  3.86941  0
C  C93  1  0.74134414  0.07309770  0.80201147  1  0.932707  0  0.162103  0.081361  0  3.869373  0
C  C94  1  0.31584971  0.05115311  0.28703774  1  0.89018  0  0.157112  0.084222  0  3.87466  0
C  C95  1  0.81585081  0.55115329  0.71296407  1  0.889126  0  0.157122  0.084199  0  3.874655  0
C  C96  1  0.23336594  0.55219935  0.04881943  1  0.212218  0  0.091919  0.164915  0  4.026153  0
C  C97  1  0.73336272  0.05219961  0.95117506  1  0.211921  0  0.091949  0.164897  0  4.026139  0
C  C98  1  0.22498853  0.06588559  0.42644850  1  0.278527  0  0.094021  0.169521  0  4.019041  0
C  C99  1  0.72498708  0.56589163  0.57355373  1  0.278724  0  0.094014  0.169466  0  4.019108  0
C  C100  1  0.32179440  0.54710681  0.98497894  1  -0.004716  0  -0.089525  -0.165179  0  3.978077  0
C  C101  1  0.82179630  0.04710311  0.01501511  1  -0.004775  0  -0.089597  -0.165327  0  3.978153  0
C  C102  1  0.11001848  0.51131806  0.04473899  1  -0.034227  0  -0.09058  -0.164379  0  3.994921  0
C  C103  1  0.61001823  0.01131626  0.95525421  1  -0.034152  0  -0.090571  -0.164378  0  3.994979  0
C  C104  1  0.14502989  0.14077116  0.40903396  1  -0.031486  0  -0.094262  -0.17348  0  3.962329  0
C  C105  1  0.64503442  0.64077578  0.59096917  1  -0.03193  0  -0.094178  -0.173204  0  3.962233  0
C  C106  1  0.24848595  0.03831309  0.50524718  1  -0.102199  0  -0.090939  -0.169346  0  3.958121  0
C  C107  1  0.74848715  0.53831868  0.49475395  1  -0.102174  0  -0.090962  -0.16945  0  3.958318  0
C  C108  1  0.28615170  0.49897533  0.91662370  1  0.024662  0  -0.071942  -0.062692  0  3.948255  0
C  C109  1  0.78615422  0.99897265  0.08337103  1  0.024513  0  -0.071965  -0.062571  0  3.948196  0
C  C110  1  0.07670483  0.46256765  0.97660500  1  -0.013436  0  -0.078366  -0.071058  0  3.984156  0
C  C111  1  0.57670417  0.96256585  0.02338828  1  -0.013448  0  -0.078358  -0.071007  0  3.98406  0
C  C112  1  0.08698695  0.18759560  0.47204476  1  0.006352  0  -0.085122  -0.08233  0  3.982137  0
C  C113  1  0.58698925  0.68760381  0.52795697  1  0.006537  0  -0.08504  -0.082387  0  3.9821  0
C  C114  1  0.19003328  0.08641758  0.56769302  1  0.016208  0  -0.076667  -0.060381  0  3.938044  0
C  C115  1  0.69003717  0.58642404  0.43230851  1  0.016794  0  -0.076605  -0.060314  0  3.938132  0
C  C116  1  0.16455088  0.45506666  0.91237988  1  -0.027841  0  -0.009495  -0.025654  0  3.941258  0
C  C117  1  0.66455244  0.95506262  0.08761356  1  -0.02757  0  -0.009524  -0.025903  0  3.941309  0
C  C118  1  0.10785060  0.16067762  0.55152510  1  -0.044481  0  -0.015461  -0.032459  0  3.96689  0
C  C119  1  0.60785161  0.66068404  0.44847792  1  -0.045168  0  -0.015496  -0.032502  0  3.967099  0
C  C120  1  0.12743161  0.39992897  0.84016330  1  1.590326  0  0.200549  0.566128  0  4.228521  0
C  C121  1  0.62743934  0.89993217  0.15983441  1  1.590025  0  0.200781  0.566377  0  4.228264  0
C  C122  1  0.03886616  0.21224028  0.61606438  1  1.531224  0  0.2022  0.5713  0  4.190881  0
C  C123  1  0.53886395  0.71224757  0.38394080  1  1.531348  0  0.202125  0.571181  0  4.190977  0
N  N124  1  0.31463997  0.92690812  0.79378950  1  -0.770547  0  -0.231324  -0.169509  0  3.52461  0
N  N125  1  0.81463870  0.42690452  0.20621263  1  -0.770701  0  -0.231278  -0.169379  0  3.524584  0
N  N126  1  0.22013932  0.02331264  0.87552942  1  -1.247785  0  -0.212086  -0.011918  0  3.767185  0
N  N127  1  0.72013807  0.52331053  0.12447111  1  -1.247607  0  -0.212123  -0.011968  0  3.767183  0
N  N128  1  0.23654619  0.98302985  0.74811745  1  -0.664283  0  -0.208522  -0.167001  0  3.172132  0
N  N129  1  0.73655000  0.48302949  0.25188502  1  -0.664318  0  -0.208524  -0.167044  0  3.172037  0
N  N130  1  0.27425593  0.62235933  0.63665458  1  -1.264237  0  -0.210096  -0.010772  0  3.762049  0
N  N131  1  0.77426216  0.12235796  0.36334700  1  -1.264334  0  -0.210023  -0.010657  0  3.762088  0
N  N132  1  0.36660814  0.72751169  0.70922963  1  -0.78197  0  -0.243029  -0.180021  0  3.569588  0
N  N133  1  0.86661505  0.22751325  0.29077484  1  -0.782045  0  -0.243121  -0.180192  0  3.56977  0
N  N134  1  0.35605550  0.65131427  0.75680837  1  -0.693544  0  -0.2317  -0.203929  0  3.190105  0
N  N135  1  0.85606419  0.15131733  0.24319506  1  -0.693491  0  -0.231578  -0.203702  0  3.190096  0
N  N136  1  0.34540589  0.70028265  0.20342305  1  -0.792013  0  -0.237561  -0.181028  0  3.540695  0
N  N137  1  0.84540697  0.20028269  0.79657427  1  -0.792075  0  -0.237498  -0.180947  0  3.540798  0
N  N138  1  0.37630807  0.91078965  0.29044030  1  -0.785007  0  -0.245413  -0.184543  0  3.57956  0
N  N139  1  0.87631076  0.41079130  0.70956017  1  -0.784847  0  -0.245512  -0.184712  0  3.579797  0
N  N140  1  0.28769462  0.63331560  0.24867607  1  -0.679022  0  -0.210713  -0.170465  0  3.187306  0
N  N141  1  0.78769453  0.13331713  0.75131952  1  -0.679191  0  -0.210757  -0.170609  0  3.187408  0
N  N142  1  0.37131594  0.98751083  0.24308897  1  -0.704261  0  -0.230026  -0.203039  0  3.182214  0
N  N143  1  0.87131686  0.48750963  0.75691311  1  -0.703309  0  -0.229964  -0.202983  0  3.182306  0
N  N144  1  0.26817497  0.59912802  0.12036214  1  -1.243722  0  -0.213618  -0.014406  0  3.783262  0
N  N145  1  0.76817442  0.09912713  0.87963350  1  -1.243843  0  -0.213729  -0.014625  0  3.783496  0
N  N146  1  0.28435460  0.01764120  0.36170512  1  -1.254604  0  -0.209388  -0.006184  0  3.76804  0
N  N147  1  0.78435539  0.51764364  0.63829672  1  -1.254539  0  -0.209449  -0.006381  0  3.76824  0
O  O148  1  0.02714896  0.30401241  0.14408579  1  -1.1774  0  -0.344418  -0.570215  0  2.27384  0
O  O149  1  0.52714277  0.80401488  0.85592095  1  -1.177454  0  -0.344396  -0.570194  0  2.273926  0
O  O150  1  0.15191072  0.21207383  0.22102158  1  -1.182779  0  -0.319928  -0.557117  0  2.169788  0
O  O151  1  0.65190126  0.71207994  0.77897779  1  -1.182664  0  -0.320019  -0.557415  0  2.169525  0
O  O152  1  0.08123681  0.42907225  0.30754740  1  -1.161801  0  -0.332572  -0.549857  0  2.235646  0
O  O153  1  0.58123587  0.92907114  0.69245435  1  -1.16182  0  -0.332532  -0.549784  0  2.235824  0
O  O154  1  0.43560326  0.88139213  0.60174304  1  -1.188833  0  -0.317065  -0.555757  0  2.177902  0
O  O155  1  0.93559880  0.38139678  0.39825579  1  -1.188887  0  -0.317051  -0.555694  0  2.177894  0
O  O156  1  0.58725866  0.71053117  0.31213118  1  -1.157692  0  -0.333739  -0.549148  0  2.253727  0
O  O157  1  0.08726900  0.21052704  0.68786989  1  -1.157288  0  -0.333776  -0.549213  0  2.253734  0
O  O158  1  0.53548750  0.84059325  0.14801933  1  -1.176603  0  -0.337808  -0.567853  0  2.326889  0
O  O159  1  0.03548867  0.34059000  0.85198195  1  -1.176701  0  -0.337674  -0.567737  0  2.327092  0
O  O160  1  0.43667705  0.75701316  0.40102410  1  -1.185339  0  -0.318881  -0.559474  0  2.175829  0
O  O161  1  0.93667638  0.25700565  0.59898281  1  -1.185578  0  -0.31893  -0.559523  0  2.175763  0
O  O162  1  0.18387554  0.41205505  0.77453111  1  -1.178292  0  -0.317838  -0.544324  0  2.159018  0
O  O163  1  0.68389139  0.91205668  0.22546186  1  -1.178142  0  -0.317918  -0.544339  0  2.158941  0
