# generated using pymatgen
data_TlH3C5SO3
_symmetry_space_group_name_H-M   'P 1'
_cell_length_a   6.18264627
_cell_length_b   9.91313216
_cell_length_c   10.99308542
_cell_angle_alpha   95.92804630
_cell_angle_beta   89.99905430
_cell_angle_gamma   90.00049909
_symmetry_Int_Tables_number   1
_chemical_formula_structural   TlH3C5SO3
_chemical_formula_sum   'Tl4 H12 C20 S4 O12'
_cell_volume   670.15648534
_cell_formula_units_Z   4
loop_
 _symmetry_equiv_pos_site_id
 _symmetry_equiv_pos_as_xyz
  1  'x, y, z'
loop_
 _atom_site_type_symbol
 _atom_site_label
 _atom_site_symmetry_multiplicity
 _atom_site_fract_x
 _atom_site_fract_y
 _atom_site_fract_z
 _atom_site_occupancy
 _atom_site_hle17_bader_spin_density
 _atom_site_hle17_ddec_charge
 _atom_site_hle17_ddec_spin_density
 _atom_site_hle17_ddec_sum_bond_order
 _atom_site_hle17_magmom
 _atom_site_hse06_10hf_bader_spin_density
 _atom_site_hse06_10hf_ddec_charge
 _atom_site_hse06_10hf_ddec_spin_density
 _atom_site_hse06_10hf_ddec_sum_bond_order
 _atom_site_hse06_10hf_magmom
 _atom_site_hse06_bader_spin_density
 _atom_site_hse06_ddec_charge
 _atom_site_hse06_ddec_spin_density
 _atom_site_hse06_ddec_sum_bond_order
 _atom_site_hse06_magmom
 _atom_site_pbe_bader_spin_density
 _atom_site_pbe_cm5_charge
 _atom_site_pbe_ddec_charge
 _atom_site_pbe_ddec_spin_density
 _atom_site_pbe_ddec_sum_bond_order
 _atom_site_pbe_magmom
Tl  Tl0  1  0.97078897  0.33475277  0.09122152  1  0  0.89237  0  0.733531  0  0  0.802929  0  1.005369  0  0  0.83103  0  0.981526  0  0  0.457885  0.782807  0  1.021913  0
Tl  Tl1  1  0.47078589  0.16525055  0.90877842  1  0  0.892342  0  0.733567  0  0  0.802905  0  1.005413  0  0  0.831023  0  0.981541  0  0  0.457867  0.782779  0  1.021956  0
Tl  Tl2  1  0.02921280  0.66525100  0.90878158  1  0  0.892354  0  0.733542  0  0  0.802911  0  1.005378  0  0  0.831003  0  0.981553  0  0  0.457867  0.782784  0  1.021921  0
Tl  Tl3  1  0.52920941  0.83475423  0.09122477  1  0  0.892361  0  0.733544  0  0  0.802923  0  1.005364  0  0  0.831026  0  0.98152  0  0  0.457881  0.782802  0  1.021905  0
H  H4  1  0.88295680  0.35347210  0.69792354  1  0  0.126611  0  0.940864  0  0  0.13686  0  0.998848  0  0  0.140674  0  0.996323  0  0  0.110963  0.134056  0  1.000772  0
H  H5  1  0.38295380  0.14652975  0.30207343  1  0  0.126611  0  0.940922  0  0  0.136853  0  0.99891  0  0  0.140668  0  0.996384  0  0  0.110974  0.134051  0  1.000836  0
H  H6  1  0.11704012  0.64652353  0.30207613  1  0  0.126565  0  0.940826  0  0  0.136802  0  0.998839  0  0  0.140629  0  0.996299  0  0  0.11094  0.134023  0  1.000734  0
H  H7  1  0.61704150  0.85347197  0.69792676  1  0  0.126629  0  0.940971  0  0  0.136874  0  0.998952  0  0  0.140689  0  0.996427  0  0  0.110983  0.134069  0  1.000875  0
H  H8  1  0.98182026  0.29324237  0.47918831  1  0  0.089539  0  0.979543  0  0  0.099845  0  1.041104  0  0  0.101224  0  1.043374  0  0  0.098463  0.098711  0  1.039929  0
H  H9  1  0.48181959  0.20676198  0.52080525  1  0  0.089481  0  0.979556  0  0  0.099785  0  1.041123  0  0  0.101157  0  1.043396  0  0  0.098427  0.098652  0  1.039948  0
H  H10  1  0.01818151  0.70675530  0.52081154  1  0  0.089538  0  0.979515  0  0  0.099847  0  1.04107  0  0  0.101228  0  1.043337  0  0  0.098461  0.098712  0  1.039893  0
H  H11  1  0.51817571  0.79323771  0.47919477  1  0  0.0895  0  0.979562  0  0  0.099806  0  1.041134  0  0  0.10118  0  1.043404  0  0  0.098424  0.098671  0  1.039958  0
H  H12  1  0.75186015  0.36650017  0.31533926  1  0  0.076709  0  1.010707  0  0  0.086817  0  1.078583  0  0  0.089398  0  1.077107  0  0  0.096148  0.084896  0  1.079784  0
H  H13  1  0.25184719  0.13350510  0.68466011  1  0  0.076697  0  1.010704  0  0  0.086815  0  1.078567  0  0  0.089395  0  1.077093  0  0  0.096144  0.084894  0  1.079765  0
H  H14  1  0.24814970  0.63350053  0.68466085  1  0  0.076756  0  1.010693  0  0  0.086853  0  1.078573  0  0  0.089434  0  1.077096  0  0  0.096164  0.08493  0  1.079771  0
H  H15  1  0.74814488  0.86649562  0.31534182  1  0  0.076681  0  1.010716  0  0  0.0868  0  1.078582  0  0  0.089382  0  1.077105  0  0  0.096123  0.084878  0  1.079786  0
C  C16  1  0.60392878  0.46831231  0.65536680  1  0  -0.162927  0  3.693506  0  0  -0.139848  0  3.938246  0  0  -0.147312  0  3.960173  0  0  -0.018718  -0.134997  0  3.923917  0
C  C17  1  0.10392467  0.03168513  0.34463232  1  0  -0.162935  0  3.693361  0  0  -0.139907  0  3.938138  0  0  -0.147371  0  3.960069  0  0  -0.018756  -0.135053  0  3.923806  0
C  C18  1  0.39607461  0.53168533  0.34463122  1  0  -0.162806  0  3.693483  0  0  -0.139747  0  3.938243  0  0  -0.147207  0  3.960169  0  0  -0.018701  -0.134898  0  3.923921  0
C  C19  1  0.89607225  0.96831154  0.65536925  1  0  -0.16295  0  3.693234  0  0  -0.139909  0  3.938011  0  0  -0.147375  0  3.959938  0  0  -0.018757  -0.135053  0  3.923675  0
C  C20  1  0.78538177  0.39031882  0.62569417  1  0  -0.067991  0  3.738107  0  0  -0.096514  0  3.991766  0  0  -0.094954  0  4.00982  0  0  -0.082919  -0.096826  0  3.979194  0
C  C21  1  0.28538100  0.10968358  0.37430556  1  0  -0.067913  0  3.737953  0  0  -0.096422  0  3.99162  0  0  -0.094865  0  4.009676  0  0  -0.082879  -0.096736  0  3.979054  0
C  C22  1  0.21461838  0.60967480  0.37430714  1  0  -0.068027  0  3.737999  0  0  -0.096538  0  3.991682  0  0  -0.094989  0  4.009731  0  0  -0.082934  -0.096869  0  3.979106  0
C  C23  1  0.71461592  0.89031309  0.62569693  1  0  -0.067909  0  3.737938  0  0  -0.096421  0  3.991603  0  0  -0.094862  0  4.009655  0  0  -0.082887  -0.096733  0  3.979029  0
C  C24  1  0.83993609  0.35581445  0.50180342  1  0  -0.052974  0  3.757698  0  0  -0.065154  0  4.010499  0  0  -0.06766  0  4.031163  0  0  -0.086784  -0.063664  0  3.99634  0
C  C25  1  0.33993045  0.14419024  0.49819510  1  0  -0.052923  0  3.757763  0  0  -0.065103  0  4.010588  0  0  -0.067596  0  4.031237  0  0  -0.086742  -0.063613  0  3.99643  0
C  C26  1  0.16007053  0.64418729  0.49819951  1  0  -0.052952  0  3.757486  0  0  -0.065128  0  4.010276  0  0  -0.067635  0  4.030941  0  0  -0.086769  -0.06364  0  3.996122  0
C  C27  1  0.66006971  0.85580845  0.50180665  1  0  -0.053017  0  3.757791  0  0  -0.065203  0  4.01062  0  0  -0.067702  0  4.031274  0  0  -0.08674  -0.063711  0  3.996456  0
C  C28  1  0.71361319  0.39889398  0.41028516  1  0  -0.086709  0  3.715088  0  0  -0.109375  0  3.963016  0  0  -0.109768  0  3.981087  0  0  -0.08183  -0.10849  0  3.950443  0
C  C29  1  0.21361073  0.10111108  0.58971090  1  0  -0.086715  0  3.715075  0  0  -0.109405  0  3.963002  0  0  -0.1098  0  3.981076  0  0  -0.081832  -0.108519  0  3.950424  0
C  C30  1  0.28638859  0.60110369  0.58971560  1  0  -0.086768  0  3.715041  0  0  -0.109428  0  3.962987  0  0  -0.109822  0  3.981059  0  0  -0.081833  -0.10854  0  3.950406  0
C  C31  1  0.78638943  0.89888657  0.41028712  1  0  -0.086658  0  3.715131  0  0  -0.109352  0  3.963042  0  0  -0.109747  0  3.981116  0  0  -0.081817  -0.108469  0  3.950469  0
C  C32  1  0.52889144  0.48183403  0.43695599  1  0  0.058881  0  3.735202  0  0  0.068911  0  3.960922  0  0  0.069331  0  3.984951  0  0  0.001012  0.068411  0  3.944999  0
C  C33  1  0.02888387  0.01816506  0.56304305  1  0  0.058859  0  3.734969  0  0  0.068928  0  3.960619  0  0  0.069351  0  3.984648  0  0  0.000954  0.068427  0  3.944697  0
C  C34  1  0.47111195  0.51816261  0.56304376  1  0  0.058936  0  3.735205  0  0  0.068963  0  3.960911  0  0  0.069385  0  3.984942  0  0  0.000969  0.068461  0  3.944987  0
C  C35  1  0.97111467  0.98182954  0.43695471  1  0  0.058928  0  3.735174  0  0  0.069008  0  3.960816  0  0  0.069429  0  3.984845  0  0  0.001028  0.068508  0  3.944894  0
S  S36  1  0.53103224  0.49679738  0.81379606  1  0  1.282732  0  5.704738  0  0  1.192224  0  6.208212  0  0  1.240474  0  6.187979  0  0  0.502375  1.158723  0  6.221746  0
S  S37  1  0.03103250  0.00320577  0.18620150  1  0  1.282649  0  5.704895  0  0  1.192131  0  6.208385  0  0  1.240383  0  6.188144  0  0  0.502325  1.15863  0  6.221917  0
S  S38  1  0.46897115  0.50320433  0.18620232  1  0  1.282635  0  5.70488  0  0  1.192123  0  6.208352  0  0  1.240367  0  6.188126  0  0  0.502336  1.158623  0  6.221889  0
S  S39  1  0.96895957  0.99679591  0.81379415  1  0  1.282764  0  5.704581  0  0  1.192259  0  6.208058  0  0  1.240513  0  6.187816  0  0  0.502356  1.158758  0  6.22159  0
O  O40  1  0.52023314  0.64517948  0.84534802  1  0  -0.715885  0  1.978764  0  0  -0.656016  0  2.227676  0  0  -0.681186  0  2.217669  0  0  -0.331188  -0.638106  0  2.233874  0
O  O41  1  0.02023397  0.85482361  0.15465004  1  0  -0.715895  0  1.978761  0  0  -0.655995  0  2.227614  0  0  -0.681163  0  2.217603  0  0  -0.331199  -0.638085  0  2.233815  0
O  O42  1  0.47977510  0.35482322  0.15464771  1  0  -0.715858  0  1.978813  0  0  -0.65596  0  2.227675  0  0  -0.681133  0  2.217673  0  0  -0.331186  -0.638049  0  2.233874  0
O  O43  1  0.97975486  0.14518011  0.84534760  1  0  -0.71592  0  1.978601  0  0  -0.656066  0  2.227551  0  0  -0.68124  0  2.217544  0  0  -0.331208  -0.638156  0  2.233749  0
O  O44  1  0.31953809  0.42932168  0.82347814  1  0  -0.705031  0  1.944476  0  0  -0.645872  0  2.188696  0  0  -0.671259  0  2.179292  0  0  -0.334606  -0.628137  0  2.194636  0
O  O45  1  0.81953848  0.07068094  0.17652766  1  0  -0.704997  0  1.944474  0  0  -0.64583  0  2.188671  0  0  -0.671216  0  2.179264  0  0  -0.334586  -0.628092  0  2.19461  0
O  O46  1  0.68046368  0.57068207  0.17652223  1  0  -0.704998  0  1.944501  0  0  -0.645846  0  2.1887  0  0  -0.67123  0  2.1793  0  0  -0.334608  -0.628107  0  2.19464  0
O  O47  1  0.18046168  0.92932282  0.82347453  1  0  -0.705018  0  1.944259  0  0  -0.645873  0  2.18849  0  0  -0.671266  0  2.179084  0  0  -0.334603  -0.628139  0  2.194426  0
O  O48  1  0.70405384  0.43291809  0.88027558  1  0  -0.735337  0  2.043629  0  0  -0.674816  0  2.302214  0  0  -0.700005  0  2.292258  0  0  -0.330764  -0.657395  0  2.308447  0
O  O49  1  0.20404881  0.06708492  0.11972403  1  0  -0.735285  0  2.04384  0  0  -0.674777  0  2.302438  0  0  -0.699968  0  2.29248  0  0  -0.330714  -0.657353  0  2.308668  0
O  O50  1  0.29594955  0.56708464  0.11972471  1  0  -0.735335  0  2.043723  0  0  -0.674807  0  2.30228  0  0  -0.699993  0  2.292329  0  0  -0.330735  -0.657387  0  2.308519  0
O  O51  1  0.79594488  0.93291883  0.88027634  1  0  -0.735395  0  2.043833  0  0  -0.67486  0  2.302402  0  0  -0.700049  0  2.292444  0  0  -0.330769  -0.657439  0  2.308633  0
