# generated using pymatgen
data_CoH18(C2O)11
_symmetry_space_group_name_H-M   'P 1'
_cell_length_a   7.78612035
_cell_length_b   11.22767201
_cell_length_c   13.49980000
_cell_angle_alpha   114.94483088
_cell_angle_beta   105.42092329
_cell_angle_gamma   89.82987410
_symmetry_Int_Tables_number   1
_chemical_formula_structural   CoH18(C2O)11
_chemical_formula_sum   'Co2 H36 C44 O22'
_cell_volume   1023.45893623
_cell_formula_units_Z   2
loop_
 _symmetry_equiv_pos_site_id
 _symmetry_equiv_pos_as_xyz
  1  'x, y, z'
loop_
 _atom_site_type_symbol
 _atom_site_label
 _atom_site_symmetry_multiplicity
 _atom_site_fract_x
 _atom_site_fract_y
 _atom_site_fract_z
 _atom_site_occupancy
 _atom_site_pbe_bader_charge
 _atom_site_pbe_bader_spin_density
 _atom_site_pbe_cm5_charge
 _atom_site_pbe_ddec_charge
 _atom_site_pbe_ddec_spin_density
 _atom_site_pbe_ddec_sum_bond_order
 _atom_site_pbe_magmom
Co  Co0  1  0.00000011  0.50000073  0.00000120  1  1.302104  -2.61093  0.635662  1.072432  -2.788257  2.184495  -2.597
Co  Co1  1  0.49999910  0.49999974  0.99999947  1  1.300079  2.611089  0.636365  1.072992  2.788338  2.192553  2.598
H  H2  1  0.81592341  0.43122438  0.29764248  1  0.656504  4.9e-05  0.306096  0.363837  3.1e-05  0.961003  0.0
H  H3  1  0.68463140  0.13398458  0.70194910  1  0.656141  -4.8e-05  0.306994  0.36618  -3e-05  0.959968  0.0
H  H4  1  0.18407495  0.56877609  0.70235684  1  0.656768  4.9e-05  0.306085  0.363794  3.1e-05  0.961058  0.0
H  H5  1  0.31537478  0.86601490  0.29805108  1  0.656376  -4.8e-05  0.307003  0.366166  -3e-05  0.959952  0.0
H  H6  1  0.95230062  0.31124793  0.79501945  1  0.67031  -0.000236  0.29345  0.386955  -0.000289  0.955097  -0.001
H  H7  1  0.54799039  0.51648595  0.20506449  1  0.641331  0.000289  0.293559  0.387766  0.000295  0.953121  0.001
H  H8  1  0.04770075  0.68875452  0.20498176  1  0.670248  -0.000237  0.293455  0.38697  -0.000289  0.955078  -0.001
H  H9  1  0.45200930  0.48351452  0.79493504  1  0.641328  0.000289  0.293542  0.387763  0.000295  0.953133  0.001
H  H10  1  0.14895829  0.31233896  0.87049775  1  0.637508  -0.000425  0.297733  0.395241  -0.000509  0.938762  -0.001
H  H11  1  0.35122916  0.44255246  0.12951045  1  0.649321  0.000439  0.297446  0.39537  0.000511  0.938471  0.001
H  H12  1  0.85104124  0.68766052  0.12950066  1  0.637371  -0.000426  0.297738  0.39525  -0.000509  0.938747  -0.001
H  H13  1  0.64877037  0.55744702  0.87048870  1  0.649345  0.000439  0.297449  0.39539  0.000511  0.938447  0.001
H  H14  1  0.20609256  0.59015113  0.92730096  1  0.656924  0.000324  0.296925  0.385876  8.8e-05  0.958696  0.001
H  H15  1  0.29289486  0.66318764  0.07251190  1  0.656933  -0.000308  0.29669  0.385373  -9.3e-05  0.959375  -0.001
H  H16  1  0.79390846  0.40984934  0.07269951  1  0.65694  0.000324  0.296917  0.385848  8.8e-05  0.95873  0.001
H  H17  1  0.70710483  0.33681283  0.92748762  1  0.656896  -0.000308  0.296675  0.385333  -9.3e-05  0.959429  -0.001
H  H18  1  0.87920308  0.48300663  0.57360613  1  0.112539  -6.5e-05  0.110008  0.115524  -2.2e-05  1.020693  0.0
H  H19  1  0.62101508  0.91040647  0.42576700  1  0.115558  5.8e-05  0.110241  0.116221  2e-05  1.020367  0.0
H  H20  1  0.12079645  0.51699285  0.42639154  1  0.112546  -6.5e-05  0.110007  0.11554  -2.2e-05  1.020708  0.0
H  H21  1  0.37899093  0.08959202  0.57423503  1  0.115557  5.8e-05  0.110257  0.116269  2e-05  1.02035  0.0
H  H22  1  0.52156647  0.74912441  0.50494272  1  0.083742  -8e-06  0.105801  0.107892  -4e-06  1.015159  0.0
H  H23  1  0.98001724  0.24523974  0.49696105  1  0.116996  6e-06  0.106048  0.107877  4e-06  1.016392  0.0
H  H24  1  0.47842789  0.25087606  0.49505747  1  0.083745  -8e-06  0.105819  0.10787  -4e-06  1.015194  0.0
H  H25  1  0.01998278  0.75476271  0.50303626  1  0.117013  6e-06  0.106063  0.107934  4e-06  1.016318  0.0
H  H26  1  0.53417968  0.86225372  0.71019364  1  0.074613  -1.1e-05  0.101796  0.10512  -2e-06  1.020765  0.0
H  H27  1  0.96631076  0.15269442  0.29163281  1  0.085934  1e-05  0.101729  0.104851  2e-06  1.020303  0.0
H  H28  1  0.46581968  0.13774477  0.28980810  1  0.074683  -1.1e-05  0.101822  0.105158  -2e-06  1.020724  0.0
H  H29  1  0.03368627  0.84730604  0.70836483  1  0.085951  1e-05  0.101757  0.104866  2e-06  1.020267  0.0
H  H30  1  0.44863934  0.80235213  0.85720476  1  0.095019  8.3e-05  0.102376  0.106706  4.2e-05  0.998832  0.0
H  H31  1  0.05105806  0.94621437  0.14348898  1  0.086479  -8.2e-05  0.1024  0.10713  -4.1e-05  0.999138  0.0
H  H32  1  0.55136385  0.19764537  0.14279426  1  0.095007  8.3e-05  0.102408  0.106767  4.2e-05  0.998849  0.0
H  H33  1  0.94894313  0.05378709  0.85651186  1  0.08648  -8.2e-05  0.10239  0.107115  -4.1e-05  0.999203  0.0
H  H34  1  0.02533959  0.84274590  0.93796199  1  0.068668  5.3e-05  0.101017  0.102002  3.7e-05  1.007551  0.0
H  H35  1  0.47426389  0.90444047  0.06269918  1  0.057314  -5.6e-05  0.101425  0.102549  -3.7e-05  1.006871  0.0
H  H36  1  0.97465993  0.15725358  0.06203864  1  0.068779  5.3e-05  0.101002  0.101995  3.7e-05  1.007548  0.0
H  H37  1  0.52573447  0.09556000  0.93730089  1  0.057344  -5.6e-05  0.101416  0.102551  -3.7e-05  1.006819  0.0
C  C38  1  0.93423493  0.58682161  0.80269651  1  1.570813  0.001476  0.23242  0.609627  0.000503  4.140839  0.001
C  C39  1  0.56539172  0.78454025  0.19704166  1  1.589123  -0.001569  0.231754  0.606927  -0.000545  4.141785  -0.001
C  C40  1  0.06576476  0.41317886  0.19730302  1  1.570837  0.001476  0.232453  0.609657  0.000503  4.140778  0.001
C  C41  1  0.43461097  0.21546220  0.80295902  1  1.588782  -0.00157  0.231745  0.606916  -0.000545  4.141756  -0.001
C  C42  1  0.81562161  0.63097261  0.71979220  1  -0.026316  -0.003492  -0.014122  -0.09312  -0.001877  3.934008  -0.003
C  C43  1  0.68426287  0.91187372  0.28019340  1  -0.005657  0.00346  -0.013239  -0.090456  0.001848  3.934772  0.003
C  C44  1  0.18437859  0.36903083  0.28020844  1  -0.02638  -0.003491  -0.014105  -0.093064  -0.001877  3.933961  -0.003
C  C45  1  0.31574048  0.08812477  0.71980748  1  -0.005666  0.003461  -0.013225  -0.090507  0.001848  3.934821  0.003
C  C46  1  0.80516178  0.56675343  0.60394027  1  -0.034801  -0.001286  -0.07321  -0.093436  -0.000651  3.928244  -0.001
C  C47  1  0.69514876  0.96378368  0.39600794  1  -0.073775  0.001159  -0.073751  -0.095408  0.000584  3.929651  0.001
C  C48  1  0.19483808  0.43324803  0.39606110  1  -0.034824  -0.001286  -0.073238  -0.093534  -0.000651  3.928247  -0.001
C  C49  1  0.30485592  0.03621480  0.60399240  1  -0.073777  0.001159  -0.073711  -0.095373  0.000584  3.929627  0.001
C  C50  1  0.70140000  0.61052128  0.52669118  1  -0.082262  -9.8e-05  -0.021219  -0.062431  -6e-05  4.008817  0.0
C  C51  1  0.79945362  0.08494574  0.47389812  1  -0.018242  7.1e-05  -0.020845  -0.060941  4.8e-05  4.010198  0.0
C  C52  1  0.29859969  0.38947919  0.47330983  1  -0.082252  -9.8e-05  -0.021254  -0.062458  -6e-05  4.008862  0.0
C  C53  1  0.20054857  0.91505374  0.52610218  1  -0.018339  7.2e-05  -0.020936  -0.061031  4.8e-05  4.010195  0.0
C  C54  1  0.60207532  0.71623912  0.56576258  1  0.057439  -0.00063  -0.074632  -0.070224  -0.000323  3.960206  0.0
C  C55  1  0.89902532  0.15141133  0.43557990  1  -0.014991  0.000761  -0.074895  -0.070943  0.00039  3.962422  0.0
C  C56  1  0.39792304  0.28376135  0.43423748  1  0.057444  -0.00063  -0.074627  -0.070165  -0.000323  3.960277  0.0
C  C57  1  0.10097338  0.84859112  0.56442091  1  -0.014828  0.000761  -0.074903  -0.070997  0.00039  3.962405  0.0
C  C58  1  0.60951563  0.77877226  0.68039038  1  -0.031247  0.000118  -0.085224  -0.122576  5.3e-05  3.959896  0.0
C  C59  1  0.89103031  0.09904396  0.32092533  1  -0.015218  -0.000159  -0.084466  -0.120899  -7.3e-05  3.960102  0.0
C  C60  1  0.39048240  0.22122623  0.31960893  1  -0.031299  0.000118  -0.085231  -0.122631  5.3e-05  3.95981  0.0
C  C61  1  0.10896822  0.90095750  0.67907436  1  -0.015277  -0.000159  -0.084487  -0.1209  -7.3e-05  3.960088  0.0
C  C62  1  0.71878339  0.73964969  0.75981477  1  -0.008138  -0.000185  0.007618  0.063996  -5.9e-05  3.959472  0.0
C  C63  1  0.78120034  0.98034315  0.24081625  1  -0.061647  0.00025  0.007525  0.062868  9.7e-05  3.960322  0.0
C  C64  1  0.28121497  0.26035078  0.24018455  1  -0.008102  -0.000185  0.00763  0.064014  -5.9e-05  3.959466  0.0
C  C65  1  0.21879818  0.01965831  0.75918418  1  -0.061645  0.00025  0.00746  0.062792  9.7e-05  3.960293  0.0
C  C66  1  0.70310273  0.55558178  0.40582752  1  1.514772  0.00014  0.237988  0.58494  0.000149  4.102803  0.0
C  C67  1  0.79752940  0.15098759  0.59471167  1  1.526292  -0.000255  0.237619  0.585095  -0.000215  4.104615  0.0
C  C68  1  0.29689547  0.44441770  0.59417365  1  1.514807  0.00014  0.23801  0.584961  0.000149  4.102804  0.0
C  C69  1  0.20246963  0.84900892  0.40528636  1  1.526341  -0.000255  0.237648  0.585076  -0.000215  4.10467  0.0
C  C70  1  0.73495893  0.81259116  0.88276352  1  -0.057601  1.9e-05  -0.01211  0.052325  3.5e-05  4.013512  0.0
C  C71  1  0.76473449  0.93013804  0.11794977  1  -0.035954  -5.9e-05  -0.012129  0.05162  -5.5e-05  4.012638  0.0
C  C72  1  0.26503909  0.18740733  0.11723580  1  -0.057564  1.9e-05  -0.012051  0.0524  3.5e-05  4.013425  0.0
C  C73  1  0.23526520  0.06986243  0.88205124  1  -0.035864  -5.9e-05  -0.012103  0.051705  -5.5e-05  4.012533  0.0
C  C74  1  0.58089483  0.83488991  0.91986453  1  0.002406  8.6e-05  -0.086184  -0.10689  2.8e-05  3.975355  0.0
C  C75  1  0.91877392  0.91587250  0.08087601  1  -0.091289  -0.000114  -0.086138  -0.107349  -3.9e-05  3.975617  0.0
C  C76  1  0.41910586  0.16510858  0.08013594  1  0.002331  8.6e-05  -0.086287  -0.107034  2.8e-05  3.975384  0.0
C  C77  1  0.08122460  0.08412896  0.91912442  1  -0.091318  -0.000114  -0.086136  -0.10733  -3.9e-05  3.975672  0.0
C  C78  1  0.90384246  0.85629069  0.96499600  1  0.029404  -0.000416  -0.090562  -0.118981  -0.00014  3.990084  0.0
C  C79  1  0.59583752  0.89119567  0.03573790  1  -0.031585  0.000364  -0.090183  -0.118463  0.000113  3.987378  0.0
C  C80  1  0.09615857  0.14370978  0.03500299  1  0.029362  -0.000415  -0.09058  -0.119038  -0.00014  3.990192  0.0
C  C81  1  0.40415951  0.10880480  0.96426270  1  -0.031675  0.000364  -0.09016  -0.11847  0.000113  3.987389  0.0
O  O82  1  0.86546010  0.55718070  0.86637099  1  -1.167084  -0.044896  -0.289434  -0.55903  -0.024635  2.348438  -0.04
O  O83  1  0.63415124  0.69048809  0.13285120  1  -1.168394  0.045263  -0.289309  -0.557418  0.02482  2.355552  0.041
O  O84  1  0.13454376  0.44282076  0.13362952  1  -1.167071  -0.044899  -0.289436  -0.559033  -0.024637  2.348408  -0.04
O  O85  1  0.36584613  0.30951436  0.86714941  1  -1.168357  0.045268  -0.289317  -0.557439  0.024822  2.355559  0.041
O  O86  1  0.10089839  0.58602463  0.80796414  1  -1.181023  0.000323  -0.298526  -0.537673  0.000168  2.206542  0.0
O  O87  1  0.39893087  0.77864751  0.19214434  1  -1.181298  -0.000314  -0.29848  -0.537264  -0.000162  2.207819  0.0
O  O88  1  0.89910263  0.41397584  0.19203707  1  -1.181016  0.000324  -0.298544  -0.537679  0.000169  2.20656  0.0
O  O89  1  0.60107016  0.22135296  0.80785613  1  -1.180976  -0.000313  -0.298457  -0.537217  -0.000162  2.207772  0.0
O  O90  1  0.78799089  0.44873330  0.37184709  1  -1.172714  0.00013  -0.327404  -0.483143  4.4e-05  2.328624  0.0
O  O91  1  0.71276986  0.07754418  0.62752429  1  -1.176855  -0.000182  -0.327291  -0.484642  -6.7e-05  2.329724  0.0
O  O92  1  0.21200730  0.55126618  0.62815334  1  -1.172993  0.00013  -0.327382  -0.483083  4.4e-05  2.328666  0.0
O  O93  1  0.28723599  0.92245332  0.37247736  1  -1.177082  -0.000182  -0.327286  -0.484584  -6.7e-05  2.32968  0.0
O  O94  1  0.63520683  0.60947282  0.34359509  1  -1.156206  0.000753  -0.283918  -0.493814  0.00021  2.177948  0.0
O  O95  1  0.86516748  0.26756621  0.65786318  1  -1.167564  -0.000716  -0.283422  -0.493386  -0.000177  2.183802  0.0
O  O96  1  0.36479287  0.39052765  0.65640665  1  -1.156256  0.000752  -0.283933  -0.493838  0.00021  2.177943  0.0
O  O97  1  0.13483222  0.73243426  0.34213709  1  -1.167624  -0.000715  -0.283417  -0.493364  -0.000177  2.183948  0.0
O  O98  1  0.02387840  0.32726881  0.87408681  1  -1.256595  -0.068419  -0.579067  -0.776015  -0.036724  2.196814  -0.055
O  O99  1  0.47600553  0.45406370  0.12571146  1  -1.238231  0.068511  -0.578624  -0.776282  0.036773  2.193167  0.055
O  O100  1  0.97612263  0.67273166  0.12591292  1  -1.256388  -0.068422  -0.579077  -0.776054  -0.036726  2.196803  -0.055
O  O101  1  0.52399416  0.54593677  0.87428881  1  -1.238255  0.068512  -0.578601  -0.776285  0.036772  2.193118  0.055
O  O102  1  0.24952464  0.57657961  0.99978035  1  -1.258526  -0.000247  -0.554288  -0.801773  -0.000103  2.374702  0.0
O  O103  1  0.75047638  0.42342086  0.00022012  1  -1.258499  -0.000249  -0.554281  -0.801723  -0.000104  2.37468  0.0
