# generated using pymatgen
data_Zn2H9C35S3Br6N2O11
_symmetry_space_group_name_H-M   'P 1'
_cell_length_a   12.75875785
_cell_length_b   13.81266757
_cell_length_c   28.09124192
_cell_angle_alpha   89.90881417
_cell_angle_beta   89.78861286
_cell_angle_gamma   89.91959223
_symmetry_Int_Tables_number   1
_chemical_formula_structural   Zn2H9C35S3Br6N2O11
_chemical_formula_sum   'Zn4 H18 C70 S6 Br12 N4 O22'
_cell_volume   4950.54445107
_cell_formula_units_Z   2
loop_
 _symmetry_equiv_pos_site_id
 _symmetry_equiv_pos_as_xyz
  1  'x, y, z'
loop_
 _atom_site_type_symbol
 _atom_site_label
 _atom_site_symmetry_multiplicity
 _atom_site_fract_x
 _atom_site_fract_y
 _atom_site_fract_z
 _atom_site_occupancy
 _atom_site_pbe_bader_charge
 _atom_site_pbe_bader_spin_density
 _atom_site_pbe_cm5_charge
 _atom_site_pbe_ddec_charge
 _atom_site_pbe_ddec_spin_density
 _atom_site_pbe_ddec_sum_bond_order
 _atom_site_pbe_magmom
Zn  Zn0  1  0.50202724  0.40057126  0.49840070  1  1.280129  0  0.665249  0.808938  0  2.44265  0
Zn  Zn1  1  0.49726615  0.60003325  0.49922932  1  1.288409  0  0.668152  0.806687  0  2.456576  0
Zn  Zn2  1  0.50240709  0.59978191  0.04468763  1  1.300593  0  0.665429  0.808517  0  2.444122  0
Zn  Zn3  1  0.49827302  0.40033741  0.04386475  1  1.286911  0  0.668037  0.80694  0  2.455508  0
H  H4  1  0.38471426  0.25006245  0.55079672  1  0.139656  0  0.122014  0.10713  0  1.014245  0
H  H5  1  0.61585433  0.24870724  0.44752072  1  0.150651  0  0.118897  0.103953  0  1.019931  0
H  H6  1  0.61368743  0.75044019  0.44783158  1  0.163113  0  0.123053  0.109345  0  1.011649  0
H  H7  1  0.38424538  0.75163790  0.55187154  1  0.149473  0  0.119965  0.104023  0  1.018411  0
H  H8  1  0.49947733  0.65480834  0.65032717  1  0.12464  0  0.093193  0.10469  0  1.05679  0
H  H9  1  0.49890454  0.34538340  0.65042371  1  0.125927  0  0.093092  0.104533  0  1.056816  0
H  H10  1  0.49924477  0.34502309  0.89277898  1  0.162934  0  0.093384  0.105245  0  1.056833  0
H  H11  1  0.50048215  0.65447792  0.89270409  1  0.125652  0  0.09314  0.104061  0  1.056931  0
H  H12  1  0.38555824  0.75067884  0.99263745  1  0.151018  0  0.121837  0.107  0  1.014507  0
H  H13  1  0.61651719  0.75103714  0.09519696  1  0.145395  0  0.118919  0.103842  0  1.019922  0
H  H14  1  0.61499067  0.24943289  0.09495638  1  0.158642  0  0.123235  0.109756  0  1.010964  0
H  H15  1  0.38592077  0.24897683  0.99149093  1  0.144538  0  0.120076  0.104116  0  1.018113  0
H  H16  1  0.50104093  0.71644762  0.30810364  1  0.609534  0  0.3344  0.361146  0  0.878223  0
H  H17  1  0.50081976  0.28335735  0.23492650  1  0.611164  0  0.334425  0.361041  0  0.878199  0
H  H18  1  0.08106159  0.28303156  0.50043551  1  0.621013  0  0.335076  0.361398  0  0.87809  0
H  H19  1  0.91877245  0.71653373  0.50020259  1  0.580468  0  0.335368  0.362025  0  0.877123  0
H  H20  1  0.08108646  0.71820453  0.04378014  1  0.608723  0  0.335034  0.36165  0  0.877367  0
H  H21  1  0.92021101  0.28480721  0.04450431  1  0.607302  0  0.334663  0.360725  0  0.878947  0
C  C22  1  0.49839596  0.50035694  0.59246629  1  1.520367  0  0.216431  0.595619  0  4.158331  0
C  C23  1  0.29469215  0.49843194  0.49989572  1  1.557765  0  0.202173  0.612207  0  4.218627  0
C  C24  1  0.50193439  0.50143226  0.40553587  1  1.597863  0  0.201266  0.611705  0  4.220358  0
C  C25  1  0.70481092  0.50158956  0.49878920  1  1.544918  0  0.201733  0.611918  0  4.220723  0
C  C26  1  0.49933159  0.49944370  0.95063585  1  1.507295  0  0.21608  0.595458  0  4.15847  0
C  C27  1  0.29537037  0.50283513  0.04394624  1  1.54771  0  0.202018  0.612033  0  4.221683  0
C  C28  1  0.50194853  0.49833141  0.13754071  1  1.606332  0  0.200851  0.609618  0  4.222725  0
C  C29  1  0.70552908  0.49971484  0.04452943  1  1.5778  0  0.201367  0.611433  0  4.222016  0
C  C30  1  0.43530815  0.20512403  0.52867009  1  0.5409  0  0.065886  0.070543  0  3.844848  0
C  C31  1  0.43192939  0.10371363  0.53074635  1  0.015865  0  -0.000824  0.006708  0  4.004806  0
C  C32  1  0.36340003  0.05076823  0.56235076  1  0.011356  0  -0.016979  0.013482  0  3.954467  0
C  C33  1  0.56570842  0.20431424  0.47012650  1  0.553696  0  0.062151  0.065109  0  3.855686  0
C  C34  1  0.56916637  0.10292347  0.46868657  1  0.00659  0  -0.001606  0.007285  0  4.008452  0
C  C35  1  0.63803981  0.04933360  0.43756555  1  -0.109812  0  -0.017313  0.014471  0  3.955583  0
C  C36  1  0.56414848  0.79540544  0.47042525  1  0.550516  0  0.067842  0.074387  0  3.838719  0
C  C37  1  0.56848666  0.89679103  0.46890272  1  -0.00578  0  -0.000321  0.006547  0  4.003618  0
C  C38  1  0.63775670  0.94974528  0.43766514  1  0.035649  0  -0.016123  0.015443  0  3.955798  0
C  C39  1  0.43437235  0.79609673  0.52928179  1  0.560673  0  0.063251  0.065823  0  3.855396  0
C  C40  1  0.43148968  0.89750280  0.53108813  1  -0.00455  0  -0.001641  0.006276  0  4.008255  0
C  C41  1  0.36329498  0.95110809  0.56253977  1  -0.088616  0  -0.017377  0.014035  0  3.95414  0
C  C42  1  0.50045535  0.05145744  0.49982605  1  0.094979  0  0.015822  0.034455  0  3.937312  0
C  C43  1  0.50019989  0.94898404  0.49994579  1  -0.041611  0  0.014601  0.03328  0  3.938117  0
C  C44  1  0.50217610  0.58119660  0.32200890  1  0.525068  0  0.07871  0.272564  0  4.087754  0
C  C45  1  0.50208844  0.41860638  0.22104389  1  0.526593  0  0.078745  0.272939  0  4.088015  0
C  C46  1  0.50233271  0.50282984  0.35328726  1  -0.086906  0  -0.039856  -0.221042  0  3.909111  0
C  C47  1  0.50226884  0.49698844  0.18977884  1  -0.092153  0  -0.039492  -0.220046  0  3.908532  0
C  C48  1  0.50199677  0.44949532  0.26926027  1  -0.105408  0  -0.044555  -0.138964  0  4.158604  0
C  C49  1  0.50204598  0.55030176  0.27379716  1  -0.180945  0  -0.044126  -0.138016  0  4.157522  0
C  C50  1  0.49922868  0.58767438  0.67058255  1  0.020358  0  -0.085546  -0.129772  0  3.929451  0
C  C51  1  0.49952200  0.58961295  0.72044561  1  -0.039814  0  -0.011634  0.042115  0  4.014876  0
C  C52  1  0.49928235  0.67890264  0.74706604  1  -0.151903  0  -0.02253  0.013309  0  3.939135  0
C  C53  1  0.49888177  0.41244771  0.67063304  1  0.025436  0  -0.086079  -0.13075  0  3.931357  0
C  C54  1  0.49898625  0.41039853  0.72050724  1  -0.041225  0  -0.011296  0.041788  0  4.01591  0
C  C55  1  0.49818229  0.32104785  0.74720845  1  -0.132011  0  -0.022861  0.013246  0  3.941531  0
C  C56  1  0.49930215  0.41216925  0.87253460  1  -0.02876  0  -0.085597  -0.13052  0  3.930284  0
C  C57  1  0.49929959  0.41024527  0.82267211  1  0.025534  0  -0.011732  0.042282  0  4.015401  0
C  C58  1  0.49838078  0.32097178  0.79604865  1  0.021971  0  -0.022697  0.013634  0  3.940334  0
C  C59  1  0.50000015  0.58741992  0.87249491  1  0.018021  0  -0.085661  -0.129592  0  3.929395  0
C  C60  1  0.49987759  0.58949951  0.82262037  1  -0.030556  0  -0.011868  0.042535  0  4.013503  0
C  C61  1  0.49943614  0.67884030  0.79591272  1  0.039942  0  -0.022916  0.012831  0  3.940767  0
C  C62  1  0.49886545  0.50009485  0.64596945  1  0.048395  0  -0.013988  -0.008871  0  3.975279  0
C  C63  1  0.49949530  0.49996993  0.74629157  1  -0.050477  0  0.005196  0.014997  0  3.917658  0
C  C64  1  0.49957132  0.49975527  0.89714430  1  0.048706  0  -0.014168  -0.009961  0  3.977224  0
C  C65  1  0.49965543  0.49991445  0.79684446  1  0.051689  0  0.00585  0.01489  0  3.918137  0
C  C66  1  0.11107991  0.41834547  0.50044649  1  0.523017  0  0.07913  0.273258  0  4.08722  0
C  C67  1  0.88852903  0.58128206  0.49954551  1  0.527122  0  0.07913  0.273081  0  4.087846  0
C  C68  1  0.17974557  0.49667490  0.50034657  1  -0.057765  0  -0.039559  -0.221511  0  3.909627  0
C  C69  1  0.81978799  0.50301443  0.49920947  1  -0.05362  0  -0.039826  -0.221988  0  3.91034  0
C  C70  1  0.99470039  0.55019451  0.50010903  1  -0.178377  0  -0.043817  -0.137869  0  4.156359  0
C  C71  1  0.00485934  0.44935685  0.50024974  1  -0.092274  0  -0.04402  -0.138446  0  4.156226  0
C  C72  1  0.43626238  0.79543786  0.01457208  1  0.549529  0  0.065785  0.070747  0  3.845084  0
C  C73  1  0.43317414  0.89685810  0.01245974  1  0.023172  0  -0.000931  0.005913  0  4.005962  0
C  C74  1  0.36481539  0.95006808  0.98105427  1  0.046055  0  -0.016563  0.014178  0  3.954128  0
C  C75  1  0.56650404  0.79568283  0.07275359  1  0.561254  0  0.06227  0.066427  0  3.853701  0
C  C76  1  0.57016599  0.89705547  0.07416622  1  0.008575  0  -0.001999  0.006095  0  4.009741  0
C  C77  1  0.63901351  0.95039735  0.10510385  1  -0.12705  0  -0.017116  0.01464  0  3.955482  0
C  C78  1  0.56550324  0.20465718  0.07247303  1  0.553178  0  0.068136  0.074495  0  3.838126  0
C  C79  1  0.56980082  0.10323746  0.07395111  1  0.010218  0  -0.001004  0.005595  0  4.003648  0
C  C80  1  0.63888668  0.04999926  0.10500637  1  0.04387  0  -0.016156  0.01598  0  3.954556  0
C  C81  1  0.43597797  0.20439665  0.01394928  1  0.555966  0  0.063063  0.06532  0  3.854379  0
C  C82  1  0.43307001  0.10301657  0.01212814  1  0.020388  0  -0.001408  0.007008  0  4.009056  0
C  C83  1  0.36481856  0.04972017  0.98087967  1  -0.128488  0  -0.017675  0.013182  0  3.954993  0
C  C84  1  0.50171246  0.94880742  0.04318709  1  -0.075072  0  0.01534  0.034766  0  3.937824  0
C  C85  1  0.50162149  0.05127705  0.04307043  1  0.087041  0  0.01579  0.034491  0  3.93824  0
C  C86  1  0.11155094  0.58289866  0.04400608  1  0.498824  0  0.078639  0.27249  0  4.088322  0
C  C87  1  0.88946066  0.42002133  0.04476550  1  0.599669  0  0.079207  0.273136  0  4.088443  0
C  C88  1  0.18042784  0.50457063  0.04405138  1  -0.053474  0  -0.039257  -0.222185  0  3.910581  0
C  C89  1  0.82049847  0.49828120  0.04474990  1  -0.091907  0  -0.03926  -0.220836  0  3.910719  0
C  C90  1  0.99555683  0.45107232  0.04446956  1  -0.214706  0  -0.043688  -0.137542  0  4.157119  0
C  C91  1  0.00541702  0.55191066  0.04429174  1  -0.095129  0  -0.044111  -0.138367  0  4.156676  0
S  S92  1  0.50227777  0.39162288  0.32369497  1  0.220445  0  0.040163  0.084742  0  2.821737  0
S  S93  1  0.50228145  0.60819612  0.21936194  1  0.220769  0  0.039689  0.083995  0  2.820843  0
S  S94  1  0.11439401  0.60793165  0.50019389  1  0.223734  0  0.040787  0.085789  0  2.823287  0
S  S95  1  0.88509499  0.39170621  0.49969436  1  0.216261  0  0.040725  0.086158  0  2.821695  0
S  S96  1  0.11540845  0.39330929  0.04435338  1  0.229548  0  0.040728  0.08607  0  2.821994  0
S  S97  1  0.88548641  0.60959326  0.04442730  1  0.220556  0  0.040536  0.085696  0  2.821643  0
Br  Br98  1  0.27485603  0.88057590  0.60408072  1  0.000916  0  0.065289  -0.01402  0  1.486234  0
Br  Br99  1  0.27506783  0.12194894  0.60360750  1  0.017834  0  0.06819  -0.006847  0  1.486175  0
Br  Br100  1  0.72746174  0.87835510  0.39704903  1  0.010454  0  0.063053  -0.012363  0  1.460377  0
Br  Br101  1  0.72815815  0.12001092  0.39677892  1  -0.007187  0  0.056883  -0.026909  0  1.462001  0
Br  Br102  1  0.49780671  0.79731131  0.83029354  1  -0.040875  0  0.02277  -0.058804  0  1.496343  0
Br  Br103  1  0.49751613  0.79745329  0.71256079  1  -0.040404  0  0.022904  -0.057745  0  1.495448  0
Br  Br104  1  0.49626885  0.20241970  0.83051345  1  -0.036654  0  0.022784  -0.058091  0  1.497895  0
Br  Br105  1  0.49565764  0.20259692  0.71283249  1  -0.051247  0  0.022721  -0.058819  0  1.496851  0
Br  Br106  1  0.27636087  0.12048397  0.93963052  1  0.002623  0  0.065459  -0.013678  0  1.488264  0
Br  Br107  1  0.27651970  0.87915613  0.94003048  1  0.016485  0  0.067889  -0.00735  0  1.485602  0
Br  Br108  1  0.72865182  0.12096396  0.14538762  1  0.013001  0  0.062827  -0.012881  0  1.460684  0
Br  Br109  1  0.72904783  0.87939050  0.14560390  1  -0.004129  0  0.056807  -0.027098  0  1.462547  0
N  N110  1  0.50057248  0.25208734  0.49925181  1  -1.24822  0  -0.311079  -0.160398  0  3.535668  0
N  N111  1  0.49868274  0.74842639  0.49972961  1  -1.247787  0  -0.310158  -0.1596  0  3.535177  0
N  N112  1  0.50129586  0.74821199  0.04383054  1  -1.262448  0  -0.311122  -0.160838  0  3.534654  0
N  N113  1  0.50017978  0.25187829  0.04334499  1  -1.264128  0  -0.310146  -0.159776  0  3.533687  0
O  O114  1  0.50056111  0.41846610  0.57179768  1  -1.170466  0  -0.315632  -0.540623  0  2.311744  0
O  O115  1  0.49591506  0.58275283  0.57213283  1  -1.151879  0  -0.315601  -0.538577  0  2.320466  0
O  O116  1  0.33703507  0.58243452  0.49997566  1  -1.166136  0  -0.327601  -0.552365  0  2.31391  0
O  O117  1  0.34247491  0.41744220  0.49934600  1  -1.142188  0  -0.316148  -0.526158  0  2.311557  0
O  O118  1  0.49957520  0.58277073  0.42677520  1  -1.154996  0  -0.315914  -0.525104  0  2.310146  0
O  O119  1  0.50372179  0.41775618  0.42522039  1  -1.16816  0  -0.328139  -0.553629  0  2.306714  0
O  O120  1  0.66207984  0.41767390  0.49831868  1  -1.165865  0  -0.328477  -0.553133  0  2.314033  0
O  O121  1  0.65738614  0.58268144  0.49906455  1  -1.142543  0  -0.315118  -0.525848  0  2.310822  0
O  O122  1  0.50144990  0.58128110  0.97134388  1  -1.166825  0  -0.315194  -0.540127  0  2.311879  0
O  O123  1  0.49703464  0.41700398  0.97095281  1  -1.15619  0  -0.315758  -0.538505  0  2.319787  0
O  O124  1  0.33801589  0.41885490  0.04366142  1  -1.16243  0  -0.327767  -0.552739  0  2.314283  0
O  O125  1  0.34284905  0.58385584  0.04419223  1  -1.153727  0  -0.316028  -0.5252  0  2.313094  0
O  O126  1  0.49995467  0.41696147  0.11633293  1  -1.150275  0  -0.315825  -0.52422  0  2.312093  0
O  O127  1  0.50349460  0.58198495  0.11783775  1  -1.167269  0  -0.327922  -0.552525  0  2.307712  0
O  O128  1  0.66259834  0.58365810  0.04478484  1  -1.164129  0  -0.328554  -0.553243  0  2.315722  0
O  O129  1  0.65826362  0.41867551  0.04392460  1  -1.160851  0  -0.31477  -0.526003  0  2.310346  0
O  O130  1  0.50258230  0.67532695  0.33631231  1  -1.106254  0  -0.340192  -0.411144  0  2.281271  0
O  O131  1  0.50245188  0.32449519  0.20672244  1  -1.109858  0  -0.340261  -0.411229  0  2.281777  0
O  O132  1  0.14297397  0.32425226  0.50073411  1  -1.120344  0  -0.340359  -0.410966  0  2.281077  0
O  O133  1  0.85681986  0.67542046  0.49915968  1  -1.07817  0  -0.340322  -0.411137  0  2.280498  0
O  O134  1  0.14313999  0.67699026  0.04363528  1  -1.09306  0  -0.339871  -0.410439  0  2.279576  0
O  O135  1  0.85805199  0.32587399  0.04516662  1  -1.105294  0  -0.340172  -0.41057  0  2.281857  0
