# generated using pymatgen
data_ZnH20C16(NO)4
_symmetry_space_group_name_H-M   'P 1'
_cell_length_a   7.78691642
_cell_length_b   10.20701299
_cell_length_c   11.75745521
_cell_angle_alpha   116.56657675
_cell_angle_beta   90.00016420
_cell_angle_gamma   89.99961239
_symmetry_Int_Tables_number   1
_chemical_formula_structural   ZnH20C16(NO)4
_chemical_formula_sum   'Zn2 H40 C32 N8 O8'
_cell_volume   835.82763320
_cell_formula_units_Z   2
loop_
 _symmetry_equiv_pos_site_id
 _symmetry_equiv_pos_as_xyz
  1  'x, y, z'
loop_
 _atom_site_type_symbol
 _atom_site_label
 _atom_site_symmetry_multiplicity
 _atom_site_fract_x
 _atom_site_fract_y
 _atom_site_fract_z
 _atom_site_occupancy
 _atom_site_hle17_bader_spin_density
 _atom_site_hle17_ddec_charge
 _atom_site_hle17_ddec_spin_density
 _atom_site_hle17_ddec_sum_bond_order
 _atom_site_hle17_magmom
 _atom_site_hse06_10hf_bader_spin_density
 _atom_site_hse06_10hf_ddec_charge
 _atom_site_hse06_10hf_ddec_spin_density
 _atom_site_hse06_10hf_ddec_sum_bond_order
 _atom_site_hse06_10hf_magmom
 _atom_site_hse06_bader_spin_density
 _atom_site_hse06_ddec_charge
 _atom_site_hse06_ddec_spin_density
 _atom_site_hse06_ddec_sum_bond_order
 _atom_site_hse06_magmom
 _atom_site_pbe_bader_spin_density
 _atom_site_pbe_cm5_charge
 _atom_site_pbe_ddec_charge
 _atom_site_pbe_ddec_spin_density
 _atom_site_pbe_ddec_sum_bond_order
 _atom_site_pbe_magmom
Zn  Zn0  1  0.75371006  0.17014300  0.78034245  1  0  1.005251  0  1.861584  0  0  0.814496  0  2.337417  0  0  0.86077  0  2.284196  0  0  0.695059  0.779573  0  2.376403  0
Zn  Zn1  1  0.25370185  0.82985913  0.21965605  1  0  1.00527  0  1.861644  0  0  0.814513  0  2.337467  0  0  0.860757  0  2.284271  0  0  0.695106  0.77961  0  2.376404  0
H  H2  1  0.12586804  0.21361023  0.66974652  1  0  0.294025  0  0.949868  0  0  0.276655  0  1.013529  0  0  0.284174  0  1.008226  0  0  0.300417  0.271339  0  1.017392  0
H  H3  1  0.62586628  0.78638933  0.33025334  1  0  0.294002  0  0.949854  0  0  0.276631  0  1.013527  0  0  0.284148  0  1.008223  0  0  0.30041  0.271311  0  1.017399  0
H  H4  1  0.02603679  0.18990475  0.16968563  1  0  0.29887  0  0.960468  0  0  0.281349  0  1.025652  0  0  0.289888  0  1.018599  0  0  0.296575  0.27526  0  1.030728  0
H  H5  1  0.52603313  0.81009645  0.83031550  1  0  0.298866  0  0.960492  0  0  0.281392  0  1.025619  0  0  0.289937  0  1.018565  0  0  0.296586  0.275296  0  1.030704  0
H  H6  1  0.99250496  0.73192450  0.50089954  1  0  0.101271  0  0.948004  0  0  0.111576  0  1.008966  0  0  0.1148  0  1.007015  0  0  0.105818  0.109364  0  1.010073  0
H  H7  1  0.49250421  0.26807870  0.49910575  1  0  0.101303  0  0.947999  0  0  0.111618  0  1.008956  0  0  0.114838  0  1.007001  0  0  0.105837  0.109406  0  1.01006  0
H  H8  1  0.09777433  0.47385662  0.41044955  1  0  0.089412  0  0.984157  0  0  0.099525  0  1.044084  0  0  0.101659  0  1.045115  0  0  0.096431  0.09812  0  1.043269  0
H  H9  1  0.59776958  0.52614631  0.58954811  1  0  0.089429  0  0.984085  0  0  0.099528  0  1.044033  0  0  0.101658  0  1.045068  0  0  0.096415  0.098119  0  1.043215  0
H  H10  1  0.04427268  0.32282866  0.52386478  1  0  0.095342  0  0.958496  0  0  0.102943  0  1.027162  0  0  0.106129  0  1.025047  0  0  0.102905  0.100655  0  1.028622  0
H  H11  1  0.54426610  0.67716911  0.47613255  1  0  0.095365  0  0.95855  0  0  0.102961  0  1.027209  0  0  0.106148  0  1.025093  0  0  0.102909  0.10066  0  1.028683  0
H  H12  1  0.78229042  0.68547634  0.81869940  1  0  0.096722  0  0.986859  0  0  0.101945  0  1.060458  0  0  0.105376  0  1.057881  0  0  0.10651  0.099521  0  1.062363  0
H  H13  1  0.28228789  0.31451685  0.18129495  1  0  0.096736  0  0.986914  0  0  0.101967  0  1.06048  0  0  0.105398  0  1.057903  0  0  0.10653  0.099542  0  1.062387  0
H  H14  1  0.51824998  0.43053989  0.84119283  1  0  0.150142  0  0.970338  0  0  0.168075  0  1.030305  0  0  0.170937  0  1.028802  0  0  0.102228  0.166003  0  1.031323  0
H  H15  1  0.01824510  0.56946021  0.15880532  1  0  0.150122  0  0.970337  0  0  0.168043  0  1.030333  0  0  0.170904  0  1.028829  0  0  0.102224  0.16597  0  1.031358  0
H  H16  1  0.29920831  0.42752072  0.88322721  1  0  0.148833  0  0.927842  0  0  0.171092  0  0.981801  0  0  0.173646  0  0.980975  0  0  0.107335  0.169137  0  0.982488  0
H  H17  1  0.79920368  0.57248119  0.11677214  1  0  0.148859  0  0.927855  0  0  0.171112  0  0.981809  0  0  0.173666  0  0.980984  0  0  0.107354  0.169159  0  0.982499  0
H  H18  1  0.35092801  0.44868733  0.74523503  1  0  0.132332  0  0.939363  0  0  0.151863  0  1.001648  0  0  0.153905  0  1.001798  0  0  0.100178  0.1503  0  1.001601  0
H  H19  1  0.85092544  0.55131215  0.25476520  1  0  0.132321  0  0.939363  0  0  0.151857  0  1.001646  0  0  0.1539  0  1.001795  0  0  0.100179  0.150297  0  1.001598  0
H  H20  1  0.53229756  0.94370656  0.54565629  1  0  0.065432  0  0.950828  0  0  0.080638  0  1.016539  0  0  0.080917  0  1.016643  0  0  0.10231  0.080302  0  1.016576  0
H  H21  1  0.03229593  0.05629459  0.45434399  1  0  0.065416  0  0.950831  0  0  0.080634  0  1.016538  0  0  0.080913  0  1.016641  0  0  0.102322  0.080299  0  1.016574  0
H  H22  1  0.46997932  0.92287987  0.68160688  1  0  0.067552  0  0.953353  0  0  0.085679  0  1.009964  0  0  0.085994  0  1.010386  0  0  0.100913  0.085145  0  1.010026  0
H  H23  1  0.96997608  0.07711787  0.31839207  1  0  0.067514  0  0.953355  0  0  0.085646  0  1.009979  0  0  0.085962  0  1.010399  0  0  0.100894  0.08511  0  1.010042  0
H  H24  1  0.17283963  0.95868821  0.64395320  1  0  0.062575  0  0.952709  0  0  0.074728  0  1.020684  0  0  0.075551  0  1.020243  0  0  0.097745  0.074042  0  1.020933  0
H  H25  1  0.67284202  0.04131332  0.35604833  1  0  0.062558  0  0.952671  0  0  0.074702  0  1.020666  0  0  0.075522  0  1.020227  0  0  0.097734  0.074017  0  1.020912  0
H  H26  1  0.24133243  0.95414422  0.49797809  1  0  0.067122  0  0.95573  0  0  0.079823  0  1.024286  0  0  0.080567  0  1.023809  0  0  0.100893  0.079011  0  1.025067  0
H  H27  1  0.74133027  0.04585695  0.50202343  1  0  0.067073  0  0.955757  0  0  0.07979  0  1.024307  0  0  0.080537  0  1.023833  0  0  0.100875  0.078977  0  1.025091  0
H  H28  1  0.10325508  0.16483236  0.85242377  1  0  0.127321  0  0.980066  0  0  0.143406  0  1.047424  0  0  0.145945  0  1.046693  0  0  0.09909  0.141422  0  1.048357  0
H  H29  1  0.60325338  0.83517172  0.14757859  1  0  0.127379  0  0.980151  0  0  0.143501  0  1.047444  0  0  0.146043  0  1.046707  0  0  0.099132  0.141493  0  1.0484  0
H  H30  1  0.19270172  0.12067241  0.97156851  1  0  0.137229  0  0.932849  0  0  0.157558  0  0.990227  0  0  0.16048  0  0.988659  0  0  0.103665  0.155415  0  0.991409  0
H  H31  1  0.69269784  0.87932902  0.02843302  1  0  0.137239  0  0.932851  0  0  0.157561  0  0.990242  0  0  0.160481  0  0.988677  0  0  0.103679  0.155418  0  0.991423  0
H  H32  1  0.18331511  0.30579645  0.99903169  1  0  0.153974  0  0.950647  0  0  0.172778  0  1.010322  0  0  0.176146  0  1.008124  0  0  0.106673  0.170196  0  1.012074  0
H  H33  1  0.68332005  0.69420293  0.00096913  1  0  0.153946  0  0.950648  0  0  0.172767  0  1.010302  0  0  0.176135  0  1.008103  0  0  0.106669  0.170186  0  1.01205  0
H  H34  1  0.71708399  0.32441808  0.25643697  1  0  0.052092  0  0.96527  0  0  0.064551  0  1.035386  0  0  0.063575  0  1.038322  0  0  0.094115  0.064947  0  1.03364  0
H  H35  1  0.21708455  0.67558208  0.74356243  1  0  0.052069  0  0.965355  0  0  0.064552  0  1.035438  0  0  0.063577  0  1.038374  0  0  0.094124  0.064948  0  1.033693  0
H  H36  1  0.71286735  0.13030340  0.17453409  1  0  0.053097  0  0.932489  0  0  0.071692  0  0.990981  0  0  0.071399  0  0.991984  0  0  0.098545  0.071731  0  0.990495  0
H  H37  1  0.21286397  0.86969683  0.82546702  1  0  0.053051  0  0.932507  0  0  0.071655  0  0.990993  0  0  0.071364  0  0.991993  0  0  0.098527  0.071693  0  0.990509  0
H  H38  1  0.56379120  0.14867845  0.00328453  1  0  0.071627  0  0.917975  0  0  0.088415  0  0.976447  0  0  0.089052  0  0.976311  0  0  0.102725  0.087819  0  0.976697  0
H  H39  1  0.06379257  0.85131928  0.99671623  1  0  0.071653  0  0.917987  0  0  0.088448  0  0.976455  0  0  0.089085  0  0.976321  0  0  0.102734  0.087851  0  0.976707  0
H  H40  1  0.58992793  0.34187584  0.07795213  1  0  0.065315  0  0.934913  0  0  0.080823  0  0.996893  0  0  0.080435  0  0.998226  0  0  0.099787  0.080896  0  0.996139  0
H  H41  1  0.08993070  0.65812059  0.92204478  1  0  0.065322  0  0.934897  0  0  0.080842  0  0.99686  0  0  0.080454  0  0.998192  0  0  0.099797  0.080915  0  0.996108  0
C  C42  1  0.80704884  0.87774608  0.72269800  1  0  0.631227  0  3.924007  0  0  0.5825  0  4.214275  0  0  0.615648  0  4.208603  0  0  0.203868  0.559635  0  4.217815  0
C  C43  1  0.30704971  0.12225252  0.27730097  1  0  0.631294  0  3.924038  0  0  0.582536  0  4.214327  0  0  0.615682  0  4.208655  0  0  0.203864  0.559665  0  4.217879  0
C  C44  1  0.87984715  0.72551419  0.66585191  1  0  -0.076717  0  3.774981  0  0  -0.051447  0  4.007917  0  0  -0.060074  0  4.030043  0  0  -0.019842  -0.045966  0  3.993442  0
C  C45  1  0.37984691  0.27448395  0.33414363  1  0  -0.076737  0  3.774991  0  0  -0.051433  0  4.007892  0  0  -0.06006  0  4.030018  0  0  -0.019833  -0.04595  0  3.993417  0
C  C46  1  0.97023853  0.66532131  0.55058053  1  0  -0.058589  0  3.712794  0  0  -0.085634  0  3.963141  0  0  -0.082979  0  3.980812  0  0  -0.077862  -0.086409  0  3.950271  0
C  C47  1  0.47023954  0.33467423  0.44941675  1  0  -0.058523  0  3.712644  0  0  -0.085584  0  3.962967  0  0  -0.082919  0  3.980642  0  0  -0.077847  -0.086358  0  3.95009  0
C  C48  1  0.02871874  0.52092571  0.50041538  1  0  -0.080804  0  3.768549  0  0  -0.091155  0  4.020739  0  0  -0.095811  0  4.04265  0  0  -0.093016  -0.088215  0  4.005428  0
C  C49  1  0.52871402  0.47907110  0.49958411  1  0  -0.080893  0  3.768544  0  0  -0.091243  0  4.020752  0  0  -0.095895  0  4.042664  0  0  -0.09303  -0.088292  0  4.005424  0
C  C50  1  0.99954129  0.43584286  0.56433741  1  0  -0.0593  0  3.712388  0  0  -0.086305  0  3.963118  0  0  -0.083504  0  3.981233  0  0  -0.080697  -0.087375  0  3.950511  0
C  C51  1  0.49953893  0.56415585  0.43566281  1  0  -0.05932  0  3.712584  0  0  -0.086328  0  3.963298  0  0  -0.083528  0  3.981413  0  0  -0.080693  -0.087391  0  3.950685  0
C  C52  1  0.91125729  0.49573047  0.68057625  1  0  -0.080386  0  3.776425  0  0  -0.054615  0  4.008521  0  0  -0.063736  0  4.031224  0  0  -0.021988  -0.048984  0  3.994066  0
C  C53  1  0.41126010  0.50426866  0.31942226  1  0  -0.080381  0  3.776533  0  0  -0.054619  0  4.008635  0  0  -0.063737  0  4.031338  0  0  -0.021993  -0.048971  0  3.99416  0
C  C54  1  0.85234255  0.64003059  0.72945505  1  0  -0.081628  0  3.735883  0  0  -0.114491  0  3.980216  0  0  -0.111693  0  3.998329  0  0  -0.078191  -0.116327  0  3.968832  0
C  C55  1  0.35234000  0.35997102  0.27054343  1  0  -0.081647  0  3.736006  0  0  -0.11453  0  3.980341  0  0  -0.111732  0  3.998454  0  0  -0.078209  -0.116367  0  3.96895  0
C  C56  1  0.86511761  0.40987682  0.75202890  1  0  0.624323  0  3.925707  0  0  0.576967  0  4.213106  0  0  0.610108  0  4.206841  0  0  0.201052  0.55433  0  4.216836  0
C  C57  1  0.36512191  0.59013261  0.24798275  1  0  0.624106  0  3.925666  0  0  0.576739  0  4.213064  0  0  0.609875  0  4.206806  0  0  0.200858  0.55409  0  4.216805  0
C  C58  1  0.38936721  0.39388947  0.80311465  1  0  -0.416088  0  3.654542  0  0  -0.493156  0  3.884999  0  0  -0.499487  0  3.88975  0  0  -0.23368  -0.488371  0  3.881706  0
C  C59  1  0.88936262  0.60610979  0.19688473  1  0  -0.416048  0  3.654552  0  0  -0.493115  0  3.885027  0  0  -0.499444  0  3.889777  0  0  -0.23369  -0.488333  0  3.881742  0
C  C60  1  0.38502715  0.23205408  0.72508090  1  0  0.50694  0  3.781834  0  0  0.479262  0  4.049652  0  0  0.502543  0  4.060097  0  0  0.249751  0.463381  0  4.042265  0
C  C61  1  0.88502531  0.76794630  0.27491889  1  0  0.506925  0  3.781832  0  0  0.479262  0  4.049636  0  0  0.502542  0  4.060079  0  0  0.249765  0.463386  0  4.042248  0
C  C62  1  0.45342935  0.99085526  0.63202400  1  0  0.017036  0  3.617985  0  0  -0.036431  0  3.876368  0  0  -0.031957  0  3.888051  0  0  -0.071984  -0.039274  0  3.868379  0
C  C63  1  0.95342822  0.00914257  0.36797496  1  0  0.017168  0  3.618014  0  0  -0.036328  0  3.876438  0  0  -0.031853  0  3.88812  0  0  -0.071946  -0.039172  0  3.868447  0
C  C64  1  0.26429845  0.00547092  0.60078957  1  0  0.033962  0  3.589865  0  0  -0.022311  0  3.847741  0  0  -0.017859  0  3.857669  0  0  -0.060731  -0.025133  0  3.841078  0
C  C65  1  0.76429900  0.99453124  0.39921321  1  0  0.03398  0  3.589781  0  0  -0.022305  0  3.847715  0  0  -0.017859  0  3.857649  0  0  -0.060731  -0.025123  0  3.841047  0
C  C66  1  0.11534850  0.20016646  0.95453766  1  0  -0.416966  0  3.653673  0  0  -0.49357  0  3.888388  0  0  -0.499532  0  3.890941  0  0  -0.233277  -0.489225  0  3.886908  0
C  C67  1  0.61535182  0.79983320  0.04546391  1  0  -0.417007  0  3.653784  0  0  -0.493649  0  3.888538  0  0  -0.499622  0  3.891074  0  0  -0.233328  -0.48929  0  3.887087  0
C  C68  1  0.94329159  0.21614444  0.01412427  1  0  0.51848  0  3.759171  0  0  0.489054  0  4.025111  0  0  0.512729  0  4.034425  0  0  0.250166  0.473041  0  4.018374  0
C  C69  1  0.44329352  0.78385676  0.98587763  1  0  0.518416  0  3.759231  0  0  0.488976  0  4.025237  0  0  0.512689  0  4.03449  0  0  0.250154  0.472957  0  4.018501  0
C  C70  1  0.74706142  0.22991571  0.16548106  1  0  0.035809  0  3.609056  0  0  -0.021319  0  3.870188  0  0  -0.017011  0  3.882407  0  0  -0.05853  -0.024105  0  3.862068  0
C  C71  1  0.24705896  0.77008322  0.83451878  1  0  0.035903  0  3.609074  0  0  -0.021244  0  3.870249  0  0  -0.016937  0  3.88247  0  0  -0.058513  -0.024036  0  3.862126  0
C  C72  1  0.65728234  0.23744254  0.05043028  1  0  0.023201  0  3.609697  0  0  -0.030904  0  3.875765  0  0  -0.026603  0  3.887825  0  0  -0.064572  -0.033704  0  3.867486  0
C  C73  1  0.15728045  0.76255355  0.94956748  1  0  0.023119  0  3.609636  0  0  -0.031007  0  3.875757  0  0  -0.026705  0  3.887814  0  0  -0.064623  -0.033804  0  3.867488  0
N  N74  1  0.51186207  0.14238426  0.71581655  1  0  -0.528218  0  3.082601  0  0  -0.44699  0  3.385659  0  0  -0.473131  0  3.392398  0  0  -0.390662  -0.429151  0  3.380797  0
N  N75  1  0.01186159  0.85761485  0.28418462  1  0  -0.52829  0  3.082733  0  0  -0.447027  0  3.385766  0  0  -0.473159  0  3.392494  0  0  -0.390685  -0.429192  0  3.38091  0
N  N76  1  0.24467135  0.16485041  0.65662113  1  0  -0.43483  0  3.258241  0  0  -0.376045  0  3.504575  0  0  -0.397135  0  3.514132  0  0  -0.429561  -0.362013  0  3.498036  0
N  N77  1  0.74466922  0.83515175  0.34337652  1  0  -0.434781  0  3.258158  0  0  -0.376017  0  3.504531  0  0  -0.397103  0  3.514086  0  0  -0.429545  -0.36198  0  3.497994  0
N  N78  1  0.79766215  0.22256921  0.96104595  1  0  -0.520705  0  3.147967  0  0  -0.440025  0  3.45102  0  0  -0.465323  0  3.457099  0  0  -0.395352  -0.422562  0  3.446301  0
N  N79  1  0.29766132  0.77743165  0.03895470  1  0  -0.520614  0  3.147883  0  0  -0.439963  0  3.450997  0  0  -0.465265  0  3.457053  0  0  -0.395323  -0.422503  0  3.446281  0
N  N80  1  0.92867368  0.22857040  0.13289011  1  0  -0.442841  0  3.227033  0  0  -0.382058  0  3.46828  0  0  -0.402919  0  3.476172  0  0  -0.433351  -0.36797  0  3.462762  0
N  N81  1  0.42867392  0.77142754  0.86710799  1  0  -0.442819  0  3.227034  0  0  -0.382074  0  3.468261  0  0  -0.402956  0  3.476146  0  0  -0.43335  -0.367964  0  3.462729  0
O  O82  1  0.86485173  0.96705605  0.68162507  1  0  -0.631619  0  2.009196  0  0  -0.558605  0  2.267954  0  0  -0.586123  0  2.255811  0  0  -0.323542  -0.538276  0  2.276817  0
O  O83  1  0.36484586  0.03294336  0.31837517  1  0  -0.631718  0  2.00932  0  0  -0.558669  0  2.268052  0  0  -0.586179  0  2.255902  0  0  -0.32357  -0.538337  0  2.276913  0
O  O84  1  0.69244896  0.91085489  0.80708631  1  0  -0.62921  0  2.00484  0  0  -0.578865  0  2.230919  0  0  -0.603208  0  2.224214  0  0  -0.316736  -0.561437  0  2.234795  0
O  O85  1  0.19244590  0.08914431  0.19291268  1  0  -0.629202  0  2.004765  0  0  -0.578852  0  2.230863  0  0  -0.603193  0  2.224157  0  0  -0.316714  -0.561425  0  2.234741  0
O  O86  1  0.89728874  0.26945616  0.69566057  1  0  -0.661078  0  2.052527  0  0  -0.581601  0  2.309941  0  0  -0.609359  0  2.295823  0  0  -0.329004  -0.561006  0  2.319885  0
O  O87  1  0.39728819  0.73054961  0.30434042  1  0  -0.660896  0  2.052599  0  0  -0.581356  0  2.309938  0  0  -0.609113  0  2.295836  0  0  -0.328877  -0.560758  0  2.31988  0
O  O88  1  0.79285404  0.47264298  0.85792131  1  0  -0.60754  0  1.96021  0  0  -0.561885  0  2.18384  0  0  -0.584949  0  2.176234  0  0  -0.312206  -0.545116  0  2.187979  0
O  O89  1  0.29284817  0.52735261  0.14208587  1  0  -0.607525  0  1.959982  0  0  -0.56187  0  2.183621  0  0  -0.584935  0  2.176022  0  0  -0.31215  -0.545095  0  2.187759  0
