# generated using pymatgen
data_ZnCrH18C14(NO)4
_symmetry_space_group_name_H-M   'P 1'
_cell_length_a   6.79232894
_cell_length_b   9.37946754
_cell_length_c   9.37947134
_cell_angle_alpha   84.33713938
_cell_angle_beta   88.33147761
_cell_angle_gamma   88.33137030
_symmetry_Int_Tables_number   1
_chemical_formula_structural   ZnCrH18C14(NO)4
_chemical_formula_sum   'Zn1 Cr1 H18 C14 N4 O4'
_cell_volume   594.17611243
_cell_formula_units_Z   1
loop_
 _symmetry_equiv_pos_site_id
 _symmetry_equiv_pos_as_xyz
  1  'x, y, z'
loop_
 _atom_site_type_symbol
 _atom_site_label
 _atom_site_symmetry_multiplicity
 _atom_site_fract_x
 _atom_site_fract_y
 _atom_site_fract_z
 _atom_site_occupancy
 _atom_site_pbe_bader_charge
 _atom_site_pbe_bader_spin_density
 _atom_site_pbe_cm5_charge
 _atom_site_pbe_ddec_charge
 _atom_site_pbe_ddec_spin_density
 _atom_site_pbe_ddec_sum_bond_order
 _atom_site_pbe_magmom
Zn  Zn0  1  0.50000143  0.88516370  0.11483620  1  1.264425  0  0.677348  0.760118  0  2.396281  0
Cr  Cr1  1  0.00000266  0.80913207  0.19086827  1  1.989192  0  1.238658  1.756839  0  4.152738  0
H  H2  1  0.29688271  0.70948942  0.39726315  1  0.041278  0  0.108625  0.085833  0  1.001333  0
H  H3  1  0.70311117  0.60273627  0.29051304  1  0.04127  0  0.108618  0.085875  0  1.001324  0
H  H4  1  0.50808043  0.67193676  0.50384250  1  0.052456  0  0.096777  0.07173  0  0.972706  0
H  H5  1  0.49191128  0.49615776  0.32806254  1  0.052431  0  0.096786  0.071751  0  0.972666  0
H  H6  1  0.26379807  0.96872565  0.39500961  1  0.083008  0  0.110066  0.100495  0  1.001267  0
H  H7  1  0.73620207  0.60499017  0.03127696  1  0.083015  0  0.110062  0.100489  0  1.00126  0
H  H8  1  0.48197541  0.06984257  0.38256709  1  0.059157  0  0.109974  0.095695  0  0.97123  0
H  H9  1  0.51802485  0.61743221  0.93015623  1  0.05914  0  0.109961  0.095659  0  0.971166  0
H  H10  1  0.12553276  0.93254804  0.62946119  1  0.07529  0  0.109136  0.122604  0  1.001757  0
H  H11  1  0.87446860  0.37054282  0.06745731  1  0.075386  0  0.109131  0.122565  0  1.001755  0
H  H12  1  0.16829564  0.89729628  0.89740269  1  0.135243  0  0.116135  0.087457  0  1.034086  0
H  H13  1  0.83170609  0.10259861  0.10271138  1  0.135254  0  0.116121  0.087469  0  1.034181  0
H  H14  1  0.77337612  0.90521485  0.85143184  1  0.130529  0  0.116559  0.1014  0  1.012191  0
H  H15  1  0.22662431  0.14856492  0.09478065  1  0.130531  0  0.116572  0.101409  0  1.01222  0
H  H16  1  0.75856566  0.94270546  0.58168642  1  0.10955  0  0.108396  0.126585  0  1.002946  0
H  H17  1  0.24143705  0.41831153  0.05729110  1  0.10957  0  0.108402  0.126578  0  1.002996  0
H  H18  1  0.67442966  0.85762685  0.36215970  1  0.445999  0  0.280358  0.247184  0  1.022639  0
H  H19  1  0.32556754  0.63783999  0.14237109  1  0.44609  0  0.280345  0.247175  0  1.022644  0
C  C20  1  0.45902618  0.70868487  0.39485626  1  0.258559  0  -0.071167  -0.046566  0  3.905652  0
C  C21  1  0.54096703  0.60514394  0.29131521  1  0.287514  0  -0.071246  -0.046708  0  3.905775  0
C  C22  1  0.41994485  0.96614569  0.42332871  1  0.286722  0  -0.065184  -0.085475  0  3.918791  0
C  C23  1  0.58005510  0.57666916  0.03385528  1  0.286772  0  -0.065161  -0.085375  0  3.918655  0
C  C24  1  0.43864276  0.94427079  0.58403955  1  -0.080479  0  0.012564  0.14346  0  3.948854  0
C  C25  1  0.56135766  0.41596081  0.05572933  1  -0.080507  0  0.01253  0.143407  0  3.948762  0
C  C26  1  0.27196985  0.92924213  0.67462683  1  0.008393  0  -0.085837  -0.187699  0  3.951777  0
C  C27  1  0.72803154  0.32537510  0.07076098  1  0.008304  0  -0.085817  -0.187639  0  3.951624  0
C  C28  1  0.29400540  0.90833117  0.82235766  1  0.45136  0  0.046086  0.094441  0  3.946855  0
C  C29  1  0.70599740  0.17763934  0.09167292  1  0.451331  0  0.046096  0.094407  0  3.946886  0
C  C30  1  0.63373041  0.91353917  0.79601438  1  0.419439  0  0.042584  0.085668  0  3.948344  0
C  C31  1  0.36627209  0.20398487  0.08645775  1  0.419347  0  0.042574  0.085604  0  3.948508  0
C  C32  1  0.62342337  0.93516429  0.64771904  1  0.007647  0  -0.08556  -0.185561  0  3.941822  0
C  C33  1  0.37657593  0.35228013  0.06483375  1  0.007817  0  -0.085571  -0.185518  0  3.941807  0
N  N34  1  0.52353208  0.85485913  0.34795248  1  -1.075443  0  -0.482058  -0.324029  0  3.480661  0
N  N35  1  0.47646547  0.65204877  0.14514104  1  -1.075599  0  -0.482006  -0.324037  0  3.480685  0
N  N36  1  0.47178953  0.90089007  0.88250092  1  -1.238937  0  -0.319648  -0.224884  0  3.512149  0
N  N37  1  0.52820962  0.11749903  0.09911195  1  -1.238997  0  -0.319645  -0.224844  0  3.512286  0
O  O38  1  0.19108906  0.91194223  0.13948175  1  -0.937978  0  -0.550956  -0.805818  0  1.901788  0
O  O39  1  0.80891693  0.86051761  0.08805852  1  -0.93793  0  -0.550948  -0.805845  0  1.901828  0
O  O40  1  0.94038100  0.82892584  0.35955628  1  -0.873181  0  -0.554829  -0.760947  0  1.554332  0
O  O41  1  0.05962439  0.64044282  0.17107312  1  -0.872971  0  -0.55483  -0.760956  0  1.554266  0
