# generated using pymatgen
data_NiH26C32(N5O3)2
_symmetry_space_group_name_H-M   'P 1'
_cell_length_a   8.34141514
_cell_length_b   9.28427381
_cell_length_c   10.61484651
_cell_angle_alpha   89.93986923
_cell_angle_beta   108.07712481
_cell_angle_gamma   103.94863374
_symmetry_Int_Tables_number   1
_chemical_formula_structural   NiH26C32(N5O3)2
_chemical_formula_sum   'Ni1 H26 C32 N10 O6'
_cell_volume   756.00806299
_cell_formula_units_Z   1
loop_
 _symmetry_equiv_pos_site_id
 _symmetry_equiv_pos_as_xyz
  1  'x, y, z'
loop_
 _atom_site_type_symbol
 _atom_site_label
 _atom_site_symmetry_multiplicity
 _atom_site_fract_x
 _atom_site_fract_y
 _atom_site_fract_z
 _atom_site_occupancy
 _atom_site_pbe_cm5_charge
 _atom_site_pbe_ddec_charge
 _atom_site_pbe_ddec_spin_density
 _atom_site_pbe_ddec_sum_bond_order
 _atom_site_pbe_magmom
Ni  Ni0  1  0.50000050  0.99999907  0.00000080  1  0.642501  0.782224  0.011943  2.533348  0.011
H  H1  1  0.46266603  0.63910446  0.18779876  1  0.321959  0.285918  9.8e-05  0.984438  0.0
H  H2  1  0.53733499  0.36089630  0.81220012  1  0.321952  0.285918  9.8e-05  0.984428  0.0
H  H3  1  0.22775139  0.57132554  0.69863203  1  0.121213  0.095495  -1e-06  0.976661  0.0
H  H4  1  0.77224614  0.42867189  0.30136503  1  0.121218  0.095499  -1e-06  0.976634  0.0
H  H5  1  0.10221019  0.47248109  0.45751569  1  0.109286  0.115495  1e-06  1.030021  0.0
H  H6  1  0.89778859  0.52751632  0.54248355  1  0.109292  0.115461  1e-06  1.030058  0.0
H  H7  1  0.57597058  0.72960514  0.40165526  1  0.105819  0.111008  -6e-06  1.067639  0.0
H  H8  1  0.42402852  0.27039338  0.59834407  1  0.105787  0.110951  -6e-06  1.067741  0.0
H  H9  1  0.68188531  0.81563048  0.64141513  1  0.113559  0.081974  -1.1e-05  1.001391  0.0
H  H10  1  0.31811319  0.18437028  0.35858312  1  0.113547  0.081938  -1.1e-05  1.00136  0.0
H  H11  1  0.10561605  0.30015856  0.84612096  1  0.110106  0.118156  -4.5e-05  1.015475  0.0
H  H12  1  0.89438213  0.69984108  0.15387721  1  0.110122  0.118177  -4.5e-05  1.015451  0.0
H  H13  1  0.85799719  0.10972206  0.68775205  1  0.101552  0.107716  -0.000368  1.02937  0.0
H  H14  1  0.14199905  0.89027533  0.31224846  1  0.101524  0.107695  -0.000368  1.029365  0.0
H  H15  1  0.60312020  0.98443948  0.76168068  1  0.11656  0.085122  -0.000881  1.040193  -0.001
H  H16  1  0.39687670  0.01556014  0.23831906  1  0.116559  0.085118  -0.000881  1.040222  -0.001
H  H17  1  0.82182515  0.22405043  0.12792505  1  0.123379  0.103945  -0.000866  1.020734  -0.001
H  H18  1  0.17817367  0.77595143  0.87207423  1  0.123381  0.103978  -0.000866  1.020709  -0.001
H  H19  1  0.86975738  0.73103911  0.43134381  1  0.098512  0.094347  1e-06  1.049934  0.0
H  H20  1  0.13024522  0.26896275  0.56865734  1  0.098526  0.094409  1e-06  1.049855  0.0
H  H21  1  0.88824296  0.18675348  0.35307765  1  0.10109  0.101875  0.000244  1.045977  0.0
H  H22  1  0.11176057  0.81324725  0.64692561  1  0.101084  0.101888  0.000244  1.04594  0.0
H  H23  1  0.48901031  0.25460354  0.15079522  1  0.275633  0.331308  -0.000756  1.037542  -0.001
H  H24  1  0.51098659  0.74539609  0.84920358  1  0.27566  0.331348  -0.000756  1.037486  -0.001
H  H25  1  0.41702189  0.26861123  0.99126694  1  0.293532  0.376889  -0.000329  0.950874  0.0
H  H26  1  0.58297975  0.73138732  0.00873113  1  0.293527  0.376869  -0.000329  0.950899  0.0
C  C27  1  0.29974819  0.60469966  0.62862002  1  0.047666  0.089836  -6.9e-05  3.955912  0.0
C  C28  1  0.70024998  0.39529997  0.37137909  1  0.047685  0.089862  -6.9e-05  3.955849  0.0
C  C29  1  0.22988155  0.55038130  0.49574597  1  -0.081135  -0.164368  3.7e-05  3.936844  0.0
C  C30  1  0.77011756  0.44961723  0.50425243  1  -0.081112  -0.164274  3.7e-05  3.936924  0.0
C  C31  1  0.32856321  0.59367243  0.41007541  1  0.012727  0.064899  -5.5e-05  4.020344  0.0
C  C32  1  0.67143716  0.40632611  0.58992329  1  0.012715  0.064855  -5.5e-05  4.020376  0.0
C  C33  1  0.49276350  0.69374823  0.46287737  1  -0.086565  -0.172588  -4.1e-05  3.942662  0.0
C  C34  1  0.50723719  0.30625141  0.53712236  1  -0.0865  -0.172492  -4.1e-05  3.942716  0.0
C  C35  1  0.55187400  0.74178961  0.59713690  1  0.044695  0.091661  -9.6e-05  3.972265  0.0
C  C36  1  0.44812576  0.25821115  0.40286166  1  0.044702  0.091714  -9.6e-05  3.972203  0.0
C  C37  1  0.26383397  0.52801674  0.27359094  1  0.217959  0.24826  -2.1e-05  4.055513  0.0
C  C38  1  0.73616673  0.47198291  0.72640785  1  0.217939  0.248193  -2.1e-05  4.055422  0.0
C  C39  1  0.11948633  0.38842735  0.09681942  1  0.210058  0.253881  -0.000346  4.079173  0.0
C  C40  1  0.88051092  0.61157341  0.90317759  1  0.210049  0.253875  -0.000346  4.079269  0.0
C  C41  1  0.98345135  0.27627421  0.00027436  1  0.001673  -0.008904  -0.002223  3.98181  -0.002
C  C42  1  0.01654875  0.72372768  0.99972241  1  0.001719  -0.008885  -0.002223  3.981992  -0.002
C  C43  1  0.99292727  0.24337921  0.87430258  1  -0.06486  -0.061577  0.000971  3.901645  0.001
C  C44  1  0.00707215  0.75662042  0.12569684  1  -0.064896  -0.061652  0.000971  3.901683  0.001
C  C45  1  0.85603262  0.13712071  0.78685396  1  -0.0923  -0.133001  -0.002089  4.005698  -0.002
C  C46  1  0.14396489  0.86287669  0.21314593  1  -0.092242  -0.132886  -0.00209  4.005545  -0.002
C  C47  1  0.71451535  0.06677503  0.82650020  1  0.039811  0.071115  -0.000484  3.941352  0.0
C  C48  1  0.28548442  0.93322574  0.17349742  1  0.039782  0.071028  -0.000484  3.94136  0.0
C  C49  1  0.83636227  0.20076014  0.03241905  1  0.058527  0.07522  -0.000365  3.851651  0.0
C  C50  1  0.16363495  0.79924060  0.96758078  1  0.058455  0.07509  -0.000365  3.851795  0.0
C  C51  1  0.71719789  0.90125637  0.25071182  1  0.211607  0.565557  0.002619  4.196929  0.001
C  C52  1  0.28280625  0.09874214  0.74929157  1  0.211612  0.565558  0.002619  4.196657  0.001
C  C53  1  0.86313741  0.95323401  0.37972830  1  -0.020196  -0.038755  0.004943  3.969319  0.004
C  C54  1  0.13686519  0.04676785  0.62027379  1  -0.020201  -0.038732  0.004943  3.969149  0.004
C  C55  1  0.92768617  0.84873973  0.46288112  1  -0.090798  -0.10796  0.000819  3.997516  0.001
C  C56  1  0.07231927  0.15126323  0.53712262  1  -0.090853  -0.108068  0.000819  3.997479  0.001
C  C57  1  0.93715226  0.10544568  0.41797513  1  -0.086928  -0.097758  0.000344  3.97068  0.0
C  C58  1  0.06285379  0.89455505  0.58202969  1  -0.086994  -0.097838  0.000344  3.970607  0.0
N  N59  1  0.70559092  0.09815796  0.94765921  1  -0.332724  -0.19795  -0.034228  3.626318  -0.032
N  N60  1  0.29440663  0.90184389  0.05234070  1  -0.332677  -0.197821  -0.034225  3.626293  -0.032
N  N61  1  0.34723589  0.55980115  0.18138858  1  -0.251484  -0.130399  2e-05  3.656009  0.0
N  N62  1  0.65276387  0.44019962  0.81860904  1  -0.251482  -0.130348  2e-05  3.655764  0.0
N  N63  1  0.25821435  0.47219979  0.06860761  1  -0.212627  -0.22897  -0.000429  3.088408  0.0
N  N64  1  0.74178541  0.52780097  0.93139096  1  -0.212595  -0.228965  -0.000429  3.08824  0.0
N  N65  1  0.11778762  0.41949555  0.22194049  1  -0.330961  -0.425195  -1.8e-05  3.190218  0.0
N  N66  1  0.88221214  0.58050520  0.77805902  1  -0.33098  -0.425193  -1.8e-05  3.190238  0.0
N  N67  1  0.45880019  0.69843783  0.67968853  1  -0.305122  -0.231901  -0.00033  3.386123  0.0
N  N68  1  0.54119705  0.30156291  0.32031036  1  -0.305159  -0.231951  -0.00033  3.3861  0.0
O  O69  1  0.49436206  0.22604547  0.06143145  1  -0.583704  -0.771797  -0.023385  2.235679  -0.023
O  O70  1  0.50563863  0.77395416  0.93856922  1  -0.58371  -0.7718  -0.023383  2.235654  -0.023
O  O71  1  0.66087530  0.00472879  0.18628404  1  -0.297287  -0.518912  0.050966  2.426071  0.055
O  O72  1  0.33912693  0.99526751  0.81371700  1  -0.297253  -0.518858  0.050967  2.425944  0.055
O  O73  1  0.66233694  0.76230048  0.21683445  1  -0.321458  -0.570756  0.000404  2.215073  0.001
O  O74  1  0.33766937  0.23769688  0.78317418  1  -0.321462  -0.570774  0.000404  2.21497  0.001
