# generated using pymatgen
data_Zn3H16C38(NO10)2
_symmetry_space_group_name_H-M   'P 1'
_cell_length_a   18.13135927
_cell_length_b   18.80476411
_cell_length_c   18.41524351
_cell_angle_alpha   108.53580874
_cell_angle_beta   108.42804443
_cell_angle_gamma   108.77650134
_symmetry_Int_Tables_number   1
_chemical_formula_structural   Zn3H16C38(NO10)2
_chemical_formula_sum   'Zn6 H32 C76 N4 O40'
_cell_volume   4986.46579168
_cell_formula_units_Z   2
loop_
 _symmetry_equiv_pos_site_id
 _symmetry_equiv_pos_as_xyz
  1  'x, y, z'
loop_
 _atom_site_type_symbol
 _atom_site_label
 _atom_site_symmetry_multiplicity
 _atom_site_fract_x
 _atom_site_fract_y
 _atom_site_fract_z
 _atom_site_occupancy
 _atom_site_pbe_bader_charge
 _atom_site_pbe_bader_spin_density
 _atom_site_pbe_cm5_charge
 _atom_site_pbe_ddec_charge
 _atom_site_pbe_ddec_spin_density
 _atom_site_pbe_ddec_sum_bond_order
 _atom_site_pbe_magmom
Zn  Zn0  1  0.48966957  0.53885403  0.56499673  1  1.314826  0  0.731575  0.967806  0  2.143957  0
Zn  Zn1  1  0.50344715  0.43534680  0.43314402  1  1.302687  0  0.726311  0.954926  0  2.095453  0
Zn  Zn2  1  0.05036889  0.98075620  0.56131798  1  1.317774  0  0.741309  0.983525  0  2.067392  0
Zn  Zn3  1  0.93245088  0.00421708  0.45167978  1  1.316173  0  0.727586  0.959838  0  2.13716  0
Zn  Zn4  1  0.07584441  0.57819494  0.00599074  1  1.306848  0  0.731369  0.961659  0  2.041928  0
Zn  Zn5  1  0.94263681  0.45550930  0.00123026  1  1.32657  0  0.740613  0.985784  0  2.144345  0
H  H6  1  0.78952058  0.70082239  0.63494667  1  0.08236  0  0.111683  0.117647  0  0.995933  0
H  H7  1  0.22427470  0.33985790  0.49485937  1  0.086341  0  0.113674  0.117658  0  0.983746  0
H  H8  1  0.51982853  0.67965582  0.45697490  1  0.099513  0  0.11052  0.117079  0  1.004138  0
H  H9  1  0.48725914  0.31468341  0.56631854  1  0.092859  0  0.108682  0.115249  0  1.01061  0
H  H10  1  0.47649051  0.76169960  0.38474540  1  0.104485  0  0.124369  0.137538  0  0.969657  0
H  H11  1  0.53396938  0.21259403  0.59859099  1  0.119506  0  0.124872  0.137428  0  0.965612  0
H  H12  1  0.90493578  0.81089063  0.62843496  1  0.140284  0  0.115062  0.121791  0  0.98676  0
H  H13  1  0.11598023  0.21307462  0.48850350  1  0.103712  0  0.112541  0.120188  0  0.983237  0
H  H14  1  0.40673024  0.54149642  0.25615458  1  0.068676  0  0.111119  0.115246  0  0.981018  0
H  H15  1  0.63500215  0.42942475  0.70381057  1  0.072586  0  0.106474  0.110172  0  0.994356  0
H  H16  1  0.25683484  0.42516474  0.39554444  1  0.064322  0  0.096682  0.102335  0  1.029796  0
H  H17  1  0.74837354  0.53287309  0.53531473  1  0.096874  0  0.100472  0.110334  0  1.020723  0
H  H18  1  0.11178763  0.39188834  0.39094783  1  0.047538  0  0.100663  0.095344  0  0.995797  0
H  H19  1  0.89725728  0.60998448  0.55323257  1  0.054567  0  0.103317  0.098823  0  0.988075  0
H  H20  1  0.00899506  0.42803313  0.30026783  1  0.077063  0  0.10666  0.105498  0  0.985046  0
H  H21  1  0.03010675  0.64408671  0.68191809  1  0.058536  0  0.106344  0.102809  0  0.984074  0
H  H22  1  0.04917065  0.49061570  0.21248070  1  0.123708  0  0.101847  0.122888  0  1.056014  0
H  H23  1  0.01358010  0.60229854  0.79237212  1  0.134977  0  0.107265  0.123156  0  1.02068  0
H  H24  1  0.30295003  0.57335977  0.16201542  1  0.092328  0  0.116361  0.123256  0  0.97326  0
H  H25  1  0.76545405  0.45106240  0.82402011  1  0.108089  0  0.113641  0.127045  0  0.987956  0
H  H26  1  0.91655687  0.71337718  0.33459298  1  0.091632  0  0.122536  0.140707  0  0.964994  0
H  H27  1  0.99117604  0.26673659  0.63205446  1  0.114221  0  0.120139  0.136222  0  0.975908  0
H  H28  1  0.00235830  0.95454195  0.28557504  1  0.088951  0  0.106722  0.115501  0  1.01097  0
H  H29  1  0.97242253  0.04011246  0.70569577  1  0.086521  0  0.102744  0.108925  0  1.042696  0
H  H30  1  0.03150146  0.98268843  0.17248331  1  0.061993  0  0.112517  0.110339  0  0.976439  0
H  H31  1  0.97186937  0.01790102  0.82972164  1  0.073599  0  0.109956  0.107525  0  0.980189  0
H  H32  1  0.98810609  0.85905943  0.03372479  1  0.107447  0  0.115605  0.118307  0  0.983954  0
H  H33  1  0.00763578  0.13930827  0.96535826  1  0.073339  0  0.112292  0.114155  0  0.984411  0
H  H34  1  0.82200786  0.59008145  0.90601288  1  0.607299  0  0.318021  0.353754  0  0.930658  0
H  H35  1  0.05606070  0.33462070  0.10696604  1  0.605728  0  0.329677  0.374484  0  0.887856  0
H  H36  1  0.80866351  0.05885829  0.48812390  1  0.619201  0  0.330524  0.386773  0  0.878851  0
H  H37  1  0.14220402  0.92192469  0.42629741  1  0.617565  0  0.333616  0.381581  0  0.868077  0
C  C38  1  0.38606273  0.48263419  0.36742921  1  1.531637  0  0.22808  0.613656  0  4.13116  0
C  C39  1  0.62805608  0.46886815  0.57887118  1  1.540787  0  0.222837  0.605539  0  4.140508  0
C  C40  1  0.61330176  0.63816629  0.54445539  1  1.577136  0  0.225399  0.60726  0  4.160175  0
C  C41  1  0.38663210  0.37713512  0.51846375  1  1.55123  0  0.226547  0.607378  0  4.147997  0
C  C42  1  0.57015771  0.73514636  0.46271560  1  -0.005568  0  -0.073477  -0.094536  0  3.952912  0
C  C43  1  0.43976803  0.25724143  0.56031985  1  0.027522  0  -0.075412  -0.097459  0  3.958592  0
C  C44  1  0.54532605  0.78050166  0.42364528  1  0.03133  0  -0.076009  -0.125454  0  3.994648  0
C  C45  1  0.46595407  0.20084592  0.57704795  1  -0.004103  0  -0.074811  -0.12327  0  3.993224  0
C  C46  1  0.61156033  0.85705896  0.44052293  1  0.103839  0  0.090859  0.070615  0  3.913886  0
C  C47  1  0.40178233  0.12382538  0.56162104  1  0.198885  0  0.093619  0.07055  0  3.924177  0
C  C48  1  0.70082829  0.88472767  0.48722319  1  0.1538  0  0.003145  -0.10694  0  3.881751  0
C  C49  1  0.31407849  0.10374464  0.53574427  1  0.070905  0  0.004896  -0.102458  0  3.866907  0
C  C50  1  0.72805144  0.83158794  0.51802151  1  0.023522  0  0.02055  0.071707  0  3.864195  0
C  C51  1  0.28801595  0.16672278  0.52834428  1  -0.000253  0  0.017504  0.060869  0  3.872866  0
C  C52  1  0.66058450  0.76017090  0.51163939  1  0.00746  0  0.007  0.05216  0  3.951591  0
C  C53  1  0.35143027  0.24209612  0.53545712  1  -0.015563  0  0.00855  0.062419  0  3.934656  0
C  C54  1  0.68468561  0.71442398  0.55495704  1  -0.090182  0  0.007105  -0.02853  0  3.915563  0
C  C55  1  0.32590125  0.30266461  0.52074766  1  0.022539  0  0.001701  -0.044679  0  3.912113  0
C  C56  1  0.77172360  0.73585052  0.60143978  1  0.117448  0  -0.078134  -0.099376  0  3.974508  0
C  C57  1  0.24244963  0.29239608  0.50442102  1  -0.024316  0  -0.077505  -0.095485  0  3.992992  0
C  C58  1  0.83695183  0.79906251  0.59933179  1  -0.108267  0  -0.067702  -0.064355  0  3.960341  0
C  C59  1  0.18159827  0.22097694  0.50054071  1  -0.028193  0  -0.073068  -0.073961  0  3.970035  0
C  C60  1  0.81721871  0.84482139  0.55687089  1  0.018484  0  -0.011701  -0.086699  0  3.913294  0
C  C61  1  0.20272131  0.15962560  0.51305774  1  0.017999  0  -0.006677  -0.067016  0  3.907062  0
C  C62  1  0.21107598  0.43843801  0.35420430  1  0.035173  0  -0.09683  -0.135912  0  3.994103  0
C  C63  1  0.80639396  0.54886519  0.59193128  1  -0.055723  0  -0.09606  -0.146074  0  3.998525  0
C  C64  1  0.13024024  0.42021679  0.35199652  1  -0.080932  0  -0.093952  -0.083579  0  4.056827  0
C  C65  1  0.88952838  0.59157359  0.60197876  1  -0.046805  0  -0.089869  -0.078588  0  4.045033  0
C  C66  1  0.07203107  0.43977759  0.30046487  1  -0.080986  0  -0.089568  -0.074173  0  4.029006  0
C  C67  1  0.96454176  0.61080741  0.67467804  1  -0.059365  0  -0.08746  -0.079192  0  4.024722  0
C  C68  1  0.09448295  0.47508520  0.25052441  1  -0.011805  0  -0.097271  -0.14268  0  3.971036  0
C  C69  1  0.95585985  0.58755032  0.73658791  1  0.026661  0  -0.081968  -0.112609  0  3.944653  0
C  C70  1  0.17640799  0.49306253  0.24919315  1  -0.019553  0  5.4e-05  0.055723  0  3.936162  0
C  C71  1  0.87153062  0.54387814  0.72898069  1  0.002624  0  0.009039  0.073716  0  3.917274  0
C  C72  1  0.23681358  0.47572239  0.30433463  1  -0.048271  0  -0.002116  0.053799  0  3.95173  0
C  C73  1  0.79491316  0.52378971  0.65436703  1  -0.036878  0  0.003732  0.058441  0  3.940009  0
C  C74  1  0.32031702  0.49437851  0.30576673  1  -0.048662  0  -0.005199  -0.054626  0  3.927431  0
C  C75  1  0.70980582  0.48234066  0.64715695  1  -0.046609  0  -0.005652  -0.049886  0  3.929746  0
C  C76  1  0.34315812  0.52856242  0.25500256  1  0.05523  0  -0.080649  -0.103601  0  3.983891  0
C  C77  1  0.70015702  0.45905067  0.70896102  1  0.023314  0  -0.087566  -0.10121  0  4.018678  0
C  C78  1  0.28488921  0.54704494  0.20232011  1  -0.009485  0  -0.069636  -0.063377  0  3.952906  0
C  C79  1  0.77392189  0.47380721  0.77827709  1  -0.080417  0  -0.088426  -0.112481  0  4.01302  0
C  C80  1  0.20267427  0.52917938  0.19771127  1  0.000943  0  -0.006398  -0.074782  0  3.910929  0
C  C81  1  0.85872976  0.51695278  0.79043650  1  0.006372  0  -0.003158  -0.061541  0  3.912719  0
C  C82  1  0.95421462  0.87289166  0.36221701  1  1.544842  0  0.230863  0.616253  0  4.126548  0
C  C83  1  0.98523590  0.11870048  0.61169650  1  1.532869  0  0.228686  0.619599  0  4.113366  0
C  C84  1  0.88922774  0.89633050  0.54415699  1  1.528582  0  0.221431  0.600675  0  4.141477  0
C  C85  1  0.13226472  0.09267607  0.51476497  1  1.554075  0  0.220912  0.601581  0  4.1596  0
C  C86  1  0.00159392  0.37940098  0.90075339  1  1.609938  0  0.219859  0.605731  0  4.172482  0
C  C87  1  0.95544418  0.60786245  0.09204767  1  1.598193  0  0.2195  0.609781  0  4.165568  0
C  C88  1  0.14055678  0.54000185  0.13142467  1  1.54183  0  0.230458  0.623244  0  4.097057  0
C  C89  1  0.93002894  0.52936379  0.86942246  1  1.553925  0  0.221147  0.597616  0  4.136776  0
C  C90  1  0.99179269  0.90295631  0.22858925  1  0.013013  0  -0.077977  -0.10578  0  3.950645  0
C  C91  1  0.98241145  0.09142430  0.76212357  1  -0.033674  0  -0.076229  -0.088693  0  3.933323  0
C  C92  1  0.00703670  0.91847561  0.16523459  1  -0.037741  0  -0.081372  -0.072445  0  4.024549  0
C  C93  1  0.98290649  0.07928205  0.83204190  1  0.030059  0  -0.082007  -0.074147  0  4.019128  0
C  C94  1  0.98527536  0.84989125  0.08851121  1  -0.024892  0  -0.065276  -0.069244  0  3.949447  0
C  C95  1  0.00114875  0.14690656  0.90777319  1  -0.062889  0  -0.071412  -0.080427  0  3.965538  0
C  C96  1  0.95520617  0.76771563  0.07790341  1  -0.006031  0  -0.008257  -0.07284  0  3.923661  0
C  C97  1  0.01531557  0.22522535  0.91180742  1  0.045042  0  -0.007481  -0.065741  0  3.928087  0
C  C98  1  0.95185659  0.75139692  0.14804012  1  0.044722  0  0.019076  0.068825  0  3.868486  0
C  C99  1  0.00523093  0.23696216  0.83656915  1  0.016188  0  0.019548  0.056137  0  3.8782  0
C  C100  1  0.96270394  0.81992507  0.22107295  1  -0.003328  0  0.005604  0.053634  0  3.946723  0
C  C101  1  0.99364113  0.16970879  0.76195973  1  0.030042  0  0.014824  0.074883  0  3.894876  0
C  C102  1  0.94723883  0.80417177  0.28707782  1  0.025974  0  -0.002034  -0.042431  0  3.936334  0
C  C103  1  0.98975219  0.18233651  0.68821888  1  0.037676  0  -0.000674  -0.039955  0  3.923109  0
C  C104  1  0.92784126  0.72589964  0.28420868  1  -0.00837  0  -0.077206  -0.155248  0  3.970712  0
C  C105  1  0.99394083  0.25653842  0.68762229  1  0.059556  0  -0.075333  -0.151426  0  3.977537  0
C  C106  1  0.92749587  0.66307546  0.21757950  1  0.245507  0  0.087319  0.066912  0  3.942482  0
C  C107  1  0.99907775  0.31838642  0.75860070  1  0.14846  0  0.087154  0.062176  0  3.948525  0
C  C108  1  0.94084483  0.67311638  0.15062312  1  0.04568  0  0.006401  -0.094658  0  3.846449  0
C  C109  1  0.00340846  0.31102893  0.83212113  1  0.081002  0  0.012902  -0.075774  0  3.851702  0
C  C110  1  0.91567909  0.70116060  0.98684363  1  1.518543  0  0.225266  0.573731  0  4.127827  0
C  C111  1  0.05650981  0.29898180  0.99887563  1  1.522518  0  0.227166  0.572917  0  4.144442  0
C  C112  1  0.76546025  0.97463686  0.51923435  1  1.554077  0  0.227598  0.594486  0  4.155591  0
C  C113  1  0.25144246  0.01610601  0.51475344  1  1.529043  0  0.225276  0.585577  0  4.154764  0
N  N114  1  0.91871907  0.58644008  0.22820127  1  0.428737  0  0.059193  0.520511  0  4.236492  0
N  N115  1  0.99216581  0.39026861  0.74673291  1  0.408016  0  0.061122  0.524181  0  4.216963  0
N  N116  1  0.57953174  0.91088887  0.41074484  1  0.398625  0  0.059296  0.516673  0  4.220034  0
N  N117  1  0.43284177  0.06170751  0.57059551  1  0.419662  0  0.061984  0.517785  0  4.222114  0
O  O118  1  0.40647887  0.52131540  0.44695363  1  -1.174021  0  -0.309066  -0.578522  0  2.353464  0
O  O119  1  0.60537917  0.42667397  0.49817535  1  -1.124326  0  -0.308314  -0.514391  0  2.228295  0
O  O120  1  0.41863563  0.43587624  0.33757458  1  -1.117204  0  -0.310206  -0.515294  0  2.220187  0
O  O121  1  0.58395149  0.50010040  0.60662578  1  -1.175582  0  -0.313106  -0.580649  0  2.339916  0
O  O122  1  0.57954852  0.64974701  0.59622645  1  -1.122431  0  -0.309792  -0.514634  0  2.214454  0
O  O123  1  0.41472280  0.36180277  0.46333588  1  -1.168  0  -0.305593  -0.562483  0  2.296802  0
O  O124  1  0.59143733  0.56772770  0.48398416  1  -1.163388  0  -0.304508  -0.564031  0  2.298128  0
O  O125  1  0.40290128  0.45106462  0.57107616  1  -1.127489  0  -0.312129  -0.521308  0  2.235427  0
O  O126  1  0.00834207  0.89015021  0.43723083  1  -1.171151  0  -0.310576  -0.581934  0  2.310751  0
O  O127  1  0.93720432  0.10605678  0.53488102  1  -1.147251  0  -0.316961  -0.563953  0  2.261493  0
O  O128  1  0.90643477  0.90865913  0.34562616  1  -1.116139  0  -0.301111  -0.506833  0  2.244758  0
O  O129  1  0.03085166  0.08142488  0.62549365  1  -1.166146  0  -0.299537  -0.556862  0  2.367074  0
O  O130  1  0.96833365  0.91054758  0.58872573  1  -1.132834  0  -0.313464  -0.53219  0  2.247386  0
O  O131  1  0.05337470  0.06952158  0.46292822  1  -1.175546  0  -0.315275  -0.577626  0  2.370639  0
O  O132  1  0.86839465  0.91984437  0.48654102  1  -1.167029  0  -0.303366  -0.568355  0  2.426126  0
O  O133  1  0.15452412  0.06600025  0.57016223  1  -1.128382  0  -0.298431  -0.513755  0  2.309048  0
O  O134  1  0.05515569  0.45520016  0.92624569  1  -1.158012  0  -0.302338  -0.554612  0  2.323388  0
O  O135  1  0.90592185  0.52941184  0.06741330  1  -1.127497  0  -0.314001  -0.530716  0  2.267395  0
O  O136  1  0.94268576  0.35465287  0.92467972  1  -1.125699  0  -0.308539  -0.524989  0  2.240686  0
O  O137  1  0.01877721  0.63610250  0.07619477  1  -1.15763  0  -0.300186  -0.554773  0  2.289439  0
O  O138  1  0.17227260  0.59250226  0.10494419  1  -1.118677  0  -0.309151  -0.519184  0  2.218258  0
O  O139  1  0.90318558  0.48448780  0.90380984  1  -1.189407  0  -0.319133  -0.592608  0  2.451107  0
O  O140  1  0.05841928  0.49424847  0.10194436  1  -1.18879  0  -0.308101  -0.578946  0  2.435489  0
O  O141  1  0.01130752  0.58319579  0.90137059  1  -1.122284  0  -0.297645  -0.500482  0  2.266315  0
O  O142  1  0.93644165  0.71157677  0.93263706  1  -1.128099  0  -0.289624  -0.478642  0  2.094827  0
O  O143  1  0.84630766  0.62929104  0.96774723  1  -1.119945  0  -0.336149  -0.472574  0  2.269589  0
O  O144  1  0.11942008  0.36645487  0.02297298  1  -1.134291  0  -0.278977  -0.472077  0  2.140758  0
O  O145  1  0.02236596  0.28260686  0.05102490  1  -1.10305  0  -0.336774  -0.481753  0  2.216129  0
O  O146  1  0.98524543  0.57678787  0.24944125  1  -0.455921  0  -0.116276  -0.312974  0  1.932276  0
O  O147  1  0.84694201  0.54081001  0.21982866  1  -0.43625  0  -0.127301  -0.317362  0  1.848063  0
O  O148  1  0.92579801  0.39705724  0.74397035  1  -0.452514  0  -0.109831  -0.307417  0  1.959848  0
O  O149  1  0.05013457  0.43518645  0.73590486  1  -0.441001  0  -0.125268  -0.317628  0  1.85044  0
O  O150  1  0.52592819  0.87664154  0.33327408  1  -0.444337  0  -0.130756  -0.323012  0  1.844715  0
O  O151  1  0.60606843  0.98409478  0.46541314  1  -0.414765  0  -0.122856  -0.311252  0  1.885135  0
O  O152  1  0.49583984  0.08740986  0.64096938  1  -0.426789  0  -0.125952  -0.315974  0  1.843589  0
O  O153  1  0.39597473  0.99115853  0.50702119  1  -0.430841  0  -0.121932  -0.309576  0  1.875097  0
O  O154  1  0.81478785  0.02185380  0.59644435  1  -1.131505  0  -0.27181  -0.471885  0  2.149781  0
O  O155  1  0.76178818  0.99921653  0.45727744  1  -1.107827  0  -0.338497  -0.484019  0  2.252746  0
O  O156  1  0.26173201  0.98350726  0.56204352  1  -1.09263  0  -0.289038  -0.467308  0  2.072662  0
O  O157  1  0.18275547  0.97631108  0.43376793  1  -1.108394  0  -0.335462  -0.484105  0  2.24576  0
