# generated using pymatgen
data_AlH15C33(SO5)3
_symmetry_space_group_name_H-M   'P 1'
_cell_length_a   4.26699997
_cell_length_b   20.32302780
_cell_length_c   20.35527388
_cell_angle_alpha   60.08888878
_cell_angle_beta   88.06711717
_cell_angle_gamma   88.00138434
_symmetry_Int_Tables_number   1
_chemical_formula_structural   AlH15C33(SO5)3
_chemical_formula_sum   'Al1 H15 C33 S3 O15'
_cell_volume   1528.85186137
_cell_formula_units_Z   1
loop_
 _symmetry_equiv_pos_site_id
 _symmetry_equiv_pos_as_xyz
  1  'x, y, z'
loop_
 _atom_site_type_symbol
 _atom_site_label
 _atom_site_symmetry_multiplicity
 _atom_site_fract_x
 _atom_site_fract_y
 _atom_site_fract_z
 _atom_site_occupancy
 _atom_site_pbe_bader_charge
 _atom_site_pbe_bader_spin_density
 _atom_site_pbe_cm5_charge
 _atom_site_pbe_ddec_charge
 _atom_site_pbe_ddec_spin_density
 _atom_site_pbe_ddec_sum_bond_order
 _atom_site_pbe_magmom
Al  Al0  1  0.09131225  0.49870655  0.49951692  1  2.521274  0  0.459131  1.646515  0  2.502609  0
H  H1  1  0.88167683  0.30875551  0.70478812  1  0.098747  0  0.11182  0.116838  0  0.985635  0
H  H2  1  0.86901279  0.23435456  0.84657779  1  0.070147  0  0.111739  0.121145  0  0.979828  0
H  H3  1  0.29930651  0.70810235  0.30892753  1  0.080186  0  0.112396  0.116976  0  0.984591  0
H  H4  1  0.30861864  0.85041901  0.23671173  1  0.109617  0  0.115307  0.129002  0  0.978114  0
H  H5  1  0.31342970  0.31162242  0.48173489  1  0.110615  0  0.112666  0.117928  0  0.985579  0
H  H6  1  0.31512823  0.23926255  0.41172460  1  0.144245  0  0.115066  0.127299  0  0.97796  0
H  H7  1  0.85854569  0.70478531  0.48232575  1  0.094098  0  0.112171  0.11714  0  0.986177  0
H  H8  1  0.84160509  0.84687200  0.41496935  1  0.097791  0  0.111594  0.120707  0  0.979437  0
H  H9  1  0.28029138  0.48075420  0.70917252  1  0.082496  0  0.112266  0.116985  0  0.983616  0
H  H10  1  0.29365013  0.41101849  0.85120662  1  0.094164  0  0.115043  0.128307  0  0.97755  0
H  H11  1  0.91648081  0.47751616  0.30968847  1  0.082962  0  0.11179  0.116428  0  0.985237  0
H  H12  1  0.89473550  0.41008113  0.23531049  1  0.098157  0  0.110964  0.12175  0  0.983479  0
H  H13  1  0.90502547  0.02710586  0.36727257  1  0.676744  0  0.312943  0.389145  0  0.96169  0
H  H14  1  0.91201642  0.36660353  0.10997876  1  0.681305  0  0.313233  0.386245  0  0.966569  0
H  H15  1  0.93732460  0.10854012  0.02453632  1  0.686863  0  0.313185  0.388038  0  0.963556  0
C  C16  1  0.58307387  0.44131363  0.61440978  1  1.604463  0  0.275216  0.662633  0  4.055351  0
C  C17  1  0.60954814  0.44117026  0.44187803  1  1.561084  0  0.276268  0.662784  0  4.056793  0
C  C18  1  0.58187692  0.61380581  0.44184422  1  1.551946  0  0.275861  0.660754  0  4.057568  0
C  C19  1  0.74969284  0.32979544  0.73752231  1  0.05397  0  -0.076468  -0.087422  0  3.985278  0
C  C20  1  0.74444211  0.28875902  0.81616930  1  -0.097749  0  -0.07426  -0.120835  0  3.94263  0
C  C21  1  0.42220239  0.73912271  0.33071207  1  0.018065  0  -0.075119  -0.086186  0  3.980492  0
C  C22  1  0.42533391  0.81787449  0.29086011  1  0.012249  0  -0.070491  -0.115834  0  3.916653  0
C  C23  1  0.44460750  0.33160430  0.42857995  1  -0.038815  0  -0.076445  -0.087743  0  3.986268  0
C  C24  1  0.44375608  0.29173014  0.38973194  1  -0.045916  0  -0.07032  -0.11264  0  3.919986  0
C  C25  1  0.73491551  0.73738283  0.42922167  1  -0.025692  0  -0.076958  -0.088381  0  3.986463  0
C  C26  1  0.72720065  0.81613473  0.39164912  1  -0.033531  0  -0.074306  -0.121152  0  3.943087  0
C  C27  1  0.41294578  0.42756944  0.73988844  1  -0.033354  0  -0.075732  -0.086636  0  3.981281  0
C  C28  1  0.41830783  0.38885439  0.81850871  1  0.058164  0  -0.06968  -0.114013  0  3.915022  0
C  C29  1  0.78158118  0.42607119  0.33074543  1  -0.044176  0  -0.075886  -0.085286  0  3.982593  0
C  C30  1  0.77081437  0.38849377  0.28961262  1  -0.03457  0  -0.074618  -0.1213  0  3.934124  0
C  C31  1  0.58110660  0.39878273  0.69892071  1  -0.028743  0  -0.00657  -0.037712  0  3.956004  0
C  C32  1  0.58071307  0.31831158  0.85747315  1  0.124563  0  0.007734  0.126574  0  4.100258  0
C  C33  1  0.56656980  0.27784541  0.93735560  1  -0.323675  0  0.00202  0.003025  0  3.965144  0
C  C34  1  0.52513123  0.24599399  0.00582496  1  0.043331  0  -0.046378  -0.106692  0  4.10137  0
C  C35  1  0.48689233  0.20712075  0.08512572  1  0.115889  0  0.020146  0.155097  0  4.108078  0
C  C36  1  0.57928964  0.69842222  0.39965621  1  -0.033672  0  -0.006455  -0.034547  0  3.951226  0
C  C37  1  0.57391280  0.85722477  0.32171551  1  0.123091  0  0.008503  0.128584  0  4.099181  0
C  C38  1  0.55684155  0.93721338  0.28281021  1  -0.287288  0  0.001355  -0.000977  0  3.969031  0
C  C39  1  0.51454577  0.00580969  0.24700214  1  0.046891  0  -0.046336  -0.104739  0  4.101093  0
C  C40  1  0.47979019  0.08533321  0.20676658  1  0.11974  0  0.020202  0.155624  0  4.108205  0
C  C41  1  0.61382593  0.39878707  0.39958867  1  0.009915  0  -0.006793  -0.03933  0  3.957358  0
C  C42  1  0.60151858  0.32082696  0.31882773  1  0.126916  0  0.009639  0.128135  0  4.096154  0
C  C43  1  0.57419475  0.28249779  0.27767461  1  -0.322193  0  0.002072  0.004217  0  3.960008  0
C  C44  1  0.51995245  0.24707407  0.24567662  1  0.063867  0  -0.046038  -0.107972  0  4.098824  0
C  C45  1  0.48038350  0.20716221  0.20673937  1  0.166363  0  0.019592  0.155221  0  4.114228  0
C  C46  1  0.47418179  0.12656565  0.12637102  1  -0.182749  0  -0.01113  -0.203113  0  3.788931  0
C  C47  1  0.46228754  0.12688705  0.24595561  1  -0.118873  0  -0.011026  -0.203766  0  3.794803  0
C  C48  1  0.47102418  0.24650514  0.12635654  1  -0.131782  0  -0.011262  -0.203008  0  3.793203  0
S  S49  1  0.35157645  0.07975880  0.34511082  1  3.159934  0  0.559895  1.196962  0  5.966948  0
S  S50  1  0.36927322  0.34643346  0.07694470  1  3.147849  0  0.560379  1.197159  0  5.964938  0
S  S51  1  0.38563304  0.07667862  0.07690187  1  3.156535  0  0.560719  1.199057  0  5.963974  0
O  O52  1  0.35358211  0.58159284  0.43078312  1  -1.258003  0  -0.240216  -0.607401  0  2.340751  0
O  O53  1  0.34614931  0.48479889  0.58240616  1  -1.260066  0  -0.240351  -0.606896  0  2.336649  0
O  O54  1  0.37288716  0.43057134  0.48608784  1  -1.257118  0  -0.241653  -0.612865  0  2.357477  0
O  O55  1  0.81257319  0.58068801  0.48577000  1  -1.264337  0  -0.240765  -0.610812  0  2.354555  0
O  O56  1  0.84039619  0.48426499  0.43053050  1  -1.260438  0  -0.24056  -0.606406  0  2.337135  0
O  O57  1  0.82272999  0.43035481  0.58132417  1  -1.258176  0  -0.240812  -0.610481  0  2.351733  0
O  O58  1  0.61877279  0.03997676  0.39325341  1  -1.310165  0  -0.309257  -0.533422  0  2.273893  0
O  O59  1  0.18414366  0.13325307  0.36030806  1  -1.283268  0  -0.290048  -0.512836  0  2.185149  0
O  O60  1  0.13379372  0.01763824  0.35148025  1  -1.286046  0  -0.341445  -0.543978  0  2.30512  0
O  O61  1  0.63498002  0.39280868  0.07026375  1  -1.305205  0  -0.30844  -0.532489  0  2.287334  0
O  O62  1  0.21871838  0.36465539  0.00787418  1  -1.280365  0  -0.289828  -0.510383  0  2.185303  0
O  O63  1  0.13653138  0.35185607  0.13406328  1  -1.291761  0  -0.342589  -0.545446  0  2.311576  0
O  O64  1  0.66139725  0.06987067  0.03602337  1  -1.306419  0  -0.309408  -0.533837  0  2.275623  0
O  O65  1  0.23218232  0.00750694  0.12847059  1  -1.28914  0  -0.29089  -0.513635  0  2.186544  0
O  O66  1  0.15869861  0.13362085  0.01596994  1  -1.300954  0  -0.342383  -0.546103  0  2.31305  0
