# generated using pymatgen
data_CuH8(C7N4)2
_symmetry_space_group_name_H-M   'P 1'
_cell_length_a   8.63581933
_cell_length_b   9.53306301
_cell_length_c   10.39580608
_cell_angle_alpha   79.06129641
_cell_angle_beta   65.16580931
_cell_angle_gamma   63.13309594
_symmetry_Int_Tables_number   1
_chemical_formula_structural   CuH8(C7N4)2
_chemical_formula_sum   'Cu2 H16 C28 N16'
_cell_volume   692.86270587
_cell_formula_units_Z   2
loop_
 _symmetry_equiv_pos_site_id
 _symmetry_equiv_pos_as_xyz
  1  'x, y, z'
loop_
 _atom_site_type_symbol
 _atom_site_label
 _atom_site_symmetry_multiplicity
 _atom_site_fract_x
 _atom_site_fract_y
 _atom_site_fract_z
 _atom_site_occupancy
 _atom_site_hle17_ddec_charge
 _atom_site_hle17_ddec_spin_density
 _atom_site_hle17_ddec_sum_bond_order
 _atom_site_hle17_magmom
 _atom_site_hse06_10hf_ddec_charge
 _atom_site_hse06_10hf_ddec_spin_density
 _atom_site_hse06_10hf_ddec_sum_bond_order
 _atom_site_hse06_10hf_magmom
 _atom_site_hse06_ddec_charge
 _atom_site_hse06_ddec_spin_density
 _atom_site_hse06_ddec_sum_bond_order
 _atom_site_hse06_magmom
 _atom_site_pbe_cm5_charge
 _atom_site_pbe_ddec_charge
 _atom_site_pbe_ddec_spin_density
 _atom_site_pbe_ddec_sum_bond_order
 _atom_site_pbe_magmom
Cu  Cu0  1  0.88571160  0.37151450  0.28427605  1  0.882228  0.747976  2.057958  0.519  0.86466  0.825564  2.483218  0.638  0.943198  0.900347  2.4146  0.723  0.829226  0.816031  0.766109  2.531235  0.577
Cu  Cu1  1  0.25731445  0.62838365  0.78412374  1  0.879378  -0.744988  2.061011  -0.516  0.863613  -0.823906  2.484466  -0.636  0.941785  -0.899623  2.41688  -0.722  0.829635  0.815966  -0.765947  2.531894  -0.577
H  H2  1  0.29257560  0.13584927  0.16855860  1  0.094722  0.002082  0.963453  0.003  0.09873  0.001644  1.034059  0.002  0.099638  0.001113  1.032974  0.002  0.118489  0.098052  0.002053  1.034763  0.003
H  H3  1  0.42886261  0.86415984  0.66799867  1  0.095603  -0.002099  0.962774  -0.003  0.099  -0.001668  1.034015  -0.002  0.099901  -0.001124  1.032917  -0.002  0.118484  0.098413  -0.002046  1.033976  -0.003
H  H4  1  0.60361150  0.15374883  0.05733790  1  0.099607  0.000696  0.975879  0.001  0.104699  0.000619  1.043299  0.001  0.106392  0.00042  1.044937  0.0  0.104235  0.103152  0.000753  1.042875  0.001
H  H5  1  0.75780367  0.84634941  0.55677930  1  0.098309  -0.000683  0.977552  -0.001  0.103335  -0.000621  1.0454  -0.001  0.10489  -0.000422  1.047196  -0.001  0.104362  0.102494  -0.000752  1.043673  -0.001
H  H6  1  0.60780336  0.41999619  0.03276507  1  0.100156  0.000303  0.957195  0.001  0.108147  -7e-06  1.020738  0.0  0.10991  -3.3e-05  1.020391  0.0  0.107752  0.106959  1.2e-05  1.020827  0.0
H  H7  1  0.02764475  0.58014674  0.53271598  1  0.100779  -0.00027  0.957205  -0.001  0.108839  1.8e-05  1.020391  0.0  0.110697  4e-05  1.019966  0.0  0.108285  0.107378  -1.3e-05  1.020805  0.0
H  H8  1  0.30416995  0.65671853  0.11186783  1  0.114424  0.001011  0.979401  0.001  0.123943  0.000847  1.041431  0.001  0.125857  0.000567  1.042328  0.001  0.109779  0.122413  0.001045  1.041087  0.001
H  H9  1  0.96018933  0.34350228  0.61223640  1  0.114339  -0.001001  0.979502  -0.001  0.124236  -0.000837  1.040875  -0.001  0.126183  -0.000558  1.041655  -0.001  0.110004  0.122585  -0.001044  1.041009  -0.001
H  H10  1  0.52258995  0.67222873  0.35132958  1  0.093556  0.00169  0.951506  0.003  0.101082  0.001287  1.012741  0.002  0.101963  0.000866  1.012348  0.001  0.120624  0.100183  0.001598  1.013426  0.002
H  H11  1  0.19452072  0.32737184  0.85142942  1  0.093109  -0.001603  0.953387  -0.003  0.100838  -0.001237  1.014537  -0.002  0.101818  -0.000839  1.013984  -0.001  0.120435  0.099799  -0.001593  1.01554  -0.002
H  H12  1  0.44122929  0.96101575  0.34362303  1  0.111146  0.000629  0.954903  0.0  0.120997  0.000555  1.014206  0.001  0.122918  0.000374  1.014995  0.0  0.110875  0.11952  0.000668  1.013777  0.001
H  H13  1  0.40168847  0.03863202  0.84389548  1  0.111161  -0.000575  0.955822  -0.001  0.12063  -0.000509  1.015516  -0.001  0.122468  -0.00034  1.01642  0.0  0.110919  0.119715  -0.000667  1.014093  -0.001
H  H14  1  0.70423081  0.04713040  0.26310938  1  0.09742  0.000174  0.941801  0.0  0.110007  -5.5e-05  0.997482  0.0  0.111572  -6.5e-05  0.997198  0.0  0.110414  0.108302  1.5e-05  0.998787  0.0
H  H15  1  0.75041178  0.95296644  0.76370946  1  0.096734  -0.000194  0.942055  0.0  0.109291  3.3e-05  0.998282  0.0  0.110912  5e-05  0.997935  0.0  0.109951  0.107764  -1.4e-05  0.998848  0.0
H  H16  1  0.03485308  0.84302556  0.18745692  1  0.119585  0.000868  0.948024  0.001  0.128131  0.000683  1.010005  0.001  0.13025  0.000448  1.010016  0.001  0.114099  0.126292  0.000895  1.010656  0.001
H  H17  1  0.87699875  0.15734587  0.68797166  1  0.120899  -0.000863  0.948811  -0.001  0.129225  -0.000685  1.010974  -0.001  0.131372  -0.00045  1.010907  -0.001  0.11461  0.127364  -0.000892  1.011184  -0.001
C  C18  1  0.13913278  0.52104373  0.18357249  1  0.182493  -0.003875  3.754352  -0.004  0.176647  0.00104  4.004534  0.0  0.185549  -0.000417  4.024642  -0.001  0.124256  0.170945  0.002174  3.990748  0.002
C  C19  1  0.65974839  0.47911222  0.68373484  1  0.179551  0.003687  3.761039  0.004  0.173762  -0.001141  4.011361  0.0  0.182493  0.000344  4.03181  0.001  0.123473  0.16848  -0.00217  3.997049  -0.002
C  C20  1  0.30217646  0.24827817  0.15610165  1  0.138628  -0.00852  3.671171  -0.01  0.11199  -0.001163  3.923921  -0.003  0.121782  -0.002497  3.943877  -0.004  0.055205  0.105291  -4.4e-05  3.911246  -0.002
C  C21  1  0.55066789  0.75183598  0.65579964  1  0.136118  0.008332  3.673054  0.009  0.109883  0.001093  3.925972  0.003  0.119693  0.002478  3.945841  0.004  0.055252  0.104458  4.6e-05  3.910885  0.002
C  C22  1  0.47390802  0.25940091  0.09440812  1  -0.116112  0.012286  3.722225  0.013  -0.130522  0.005162  3.976276  0.006  -0.138828  0.004356  3.999569  0.005  -0.081198  -0.125004  0.005907  3.961749  0.007
C  C23  1  0.73352184  0.74072698  0.59412514  1  -0.11467  -0.012224  3.724346  -0.013  -0.128983  -0.005208  3.978581  -0.006  -0.137027  -0.004387  4.001857  -0.005  -0.08205  -0.12418  -0.005906  3.962684  -0.007
C  C24  1  0.47609384  0.40703341  0.07938129  1  0.011391  -0.009759  3.691782  -0.009  -0.008974  -0.003092  3.944605  -0.003  -0.004538  -0.003252  3.96285  -0.003  -0.063037  -0.012586  -0.00296  3.93353  -0.003
C  C25  1  0.88298321  0.59314497  0.57938591  1  0.010124  0.009632  3.692636  0.009  -0.010155  0.003084  3.945024  0.003  -0.005887  0.003242  3.96315  0.003  -0.063543  -0.01342  0.002956  3.934983  0.003
C  C26  1  0.30666286  0.53985619  0.12392195  1  -0.12952  0.008977  3.664015  0.009  -0.1528  0.004076  3.91745  0.004  -0.159959  0.003589  3.93616  0.004  -0.073285  -0.148247  0.004516  3.905578  0.004
C  C27  1  0.84606725  0.46032381  0.62415723  1  -0.128484  -0.008927  3.666251  -0.009  -0.151549  -0.004087  3.91899  -0.004  -0.158432  -0.003585  3.937512  -0.004  -0.074098  -0.148832  -0.004523  3.908818  -0.004
C  C28  1  0.95174536  0.65141806  0.22804058  1  0.171202  -0.002217  3.763272  -0.002  0.171376  0.001104  4.004924  0.001  0.178992  -8.6e-05  4.026096  -0.001  0.121033  0.166313  0.00193  3.99101  0.002
C  C29  1  0.60259179  0.34867287  0.72827642  1  0.173502  0.002256  3.764242  0.002  0.172745  -0.001041  4.007585  -0.001  0.180143  0.000108  4.029083  0.001  0.121778  0.168116  -0.001926  3.99226  -0.002
C  C30  1  0.63071884  0.71621725  0.31364487  1  0.142041  -0.007398  3.676898  -0.008  0.116291  -0.001423  3.928793  -0.003  0.12549  -0.002378  3.948057  -0.004  0.055609  0.109553  -0.000665  3.917793  -0.002
C  C31  1  0.34650376  0.28351285  0.81381030  1  0.143996  0.00745  3.677138  0.008  0.118325  0.001538  3.928028  0.003  0.127635  0.002483  3.946938  0.004  0.056141  0.111037  0.000666  3.919401  0.002
C  C32  1  0.58735946  0.87629725  0.30914114  1  -0.104349  0.009444  3.706716  0.01  -0.115887  0.004018  3.952247  0.005  -0.123202  0.0034  3.974372  0.004  -0.073627  -0.111373  0.00468  3.938407  0.005
C  C33  1  0.46308813  0.12348205  0.80941790  1  -0.105166  -0.009589  3.708721  -0.01  -0.115863  -0.004085  3.954033  -0.005  -0.123102  -0.003421  3.976202  -0.004  -0.074543  -0.113483  -0.004687  3.940542  -0.005
C  C34  1  0.73339172  0.92315571  0.26466723  1  -0.008003  -0.007617  3.706268  -0.007  -0.02579  -0.002663  3.953256  -0.002  -0.021856  -0.002763  3.971581  -0.003  -0.065288  -0.028743  -0.002651  3.942221  -0.002
C  C35  1  0.65576874  0.07688866  0.76515925  1  -0.006455  0.007621  3.709175  0.007  -0.024323  0.002668  3.956371  0.003  -0.020476  0.002753  3.974758  0.003  -0.064333  -0.025939  0.002651  3.942395  0.002
C  C36  1  0.91815861  0.80972029  0.22271992  1  -0.116598  0.006183  3.677898  0.006  -0.138132  0.002767  3.925851  0.003  -0.14537  0.002474  3.948003  0.003  -0.069727  -0.133551  0.003127  3.91177  0.003
C  C37  1  0.72713298  0.19045907  0.72315396  1  -0.121561  -0.006249  3.682264  -0.006  -0.143629  -0.002782  3.932152  -0.003  -0.150802  -0.002447  3.95431  -0.003  -0.070055  -0.136164  -0.003116  3.914404  -0.003
C  C38  1  0.50524531  0.35311324  0.42043140  1  0.519833  -0.008006  3.957176  -0.008  0.496028  0.005984  4.251363  0.009  0.527321  0.004368  4.263003  0.007  0.314478  0.474054  0.006861  4.243271  0.009
C  C39  1  0.85872454  0.64679481  0.92028914  1  0.516992  0.008786  3.958779  0.009  0.493225  -0.005767  4.253664  -0.009  0.524716  -0.004259  4.265424  -0.007  0.313737  0.471256  -0.006925  4.244962  -0.009
C  C40  1  0.31671631  0.21558035  0.52105458  1  0.445176  -0.013819  3.996257  -0.015  0.422244  -0.000842  4.297231  -0.001  0.445737  -0.000682  4.31146  -0.001  0.27943  0.406154  -0.001417  4.285709  -0.002
C  C41  1  0.53291946  0.78429630  0.02086820  1  0.444638  0.015252  3.99649  0.017  0.42147  0.001091  4.298409  0.002  0.44514  0.000946  4.312807  0.001  0.278294  0.404832  0.001435  4.287265  0.002
C  C42  1  0.02452784  0.02931109  0.40283649  1  0.520611  -0.003531  3.997759  0.0  0.495896  0.001499  4.272988  0.005  0.526692  0.00016  4.279812  0.003  0.318542  0.47438  0.00243  4.26878  0.006
C  C43  1  0.05399426  0.97073868  0.90242152  1  0.52161  0.003535  3.99411  0.0  0.496842  -0.001434  4.269058  -0.005  0.527694  -0.00012  4.275772  -0.003  0.318771  0.47556  -0.00247  4.264907  -0.006
C  C44  1  0.14450506  0.79576309  0.51840397  1  0.493161  -9.9e-05  3.983459  0.0  0.475806  0.000423  4.253676  0.0  0.503906  0.000606  4.261633  0.001  0.305679  0.456914  0.000244  4.247405  0.0
C  C45  1  0.94031303  0.20425942  0.01810416  1  0.49356  3.4e-05  3.988577  0.0  0.475512  -0.000493  4.259037  0.0  0.503545  -0.000659  4.267043  -0.001  0.304539  0.456677  -0.000245  4.252676  0.0
N  N46  1  0.13995982  0.37642367  0.20063778  1  -0.308842  0.107819  3.307678  0.13  -0.270257  0.075831  3.600281  0.1  -0.304319  0.060046  3.624436  0.083  -0.332358  -0.249628  0.084628  3.585485  0.107
N  N47  1  0.51631927  0.62368368  0.70052683  1  -0.306843  -0.107186  3.310189  -0.129  -0.267727  -0.076216  3.601461  -0.1  -0.301693  -0.060379  3.625778  -0.084  -0.330758  -0.246484  -0.084436  3.585448  -0.107
N  N48  1  0.80807919  0.60719534  0.27478669  1  -0.328343  0.087618  3.315097  0.107  -0.289642  0.061753  3.60882  0.082  -0.320165  0.049019  3.630054  0.069  -0.333444  -0.271332  0.068736  3.597236  0.088
N  N49  1  0.41486911  0.39269628  0.77492246  1  -0.328031  -0.087192  3.31532  -0.106  -0.288986  -0.061583  3.609295  -0.082  -0.319143  -0.048907  3.630315  -0.069  -0.334232  -0.272922  -0.068665  3.599586  -0.088
N  N50  1  0.62592983  0.39475013  0.39191426  1  -0.58838  0.073219  2.949405  0.084  -0.588114  0.04044  3.277106  0.049  -0.621934  0.032843  3.279539  0.041  -0.419288  -0.564968  0.046168  3.276251  0.054
N  N51  1  0.02094549  0.60496046  0.89192955  1  -0.583535  -0.073181  2.950247  -0.084  -0.58407  -0.040337  3.27806  -0.049  -0.617917  -0.03274  3.28072  -0.041  -0.417565  -0.560713  -0.046255  3.276581  -0.054
N  N52  1  0.36258652  0.32644075  0.44525414  1  -0.431392  0.033437  3.310247  0.04  -0.395611  0.006642  3.576623  0.009  -0.423005  0.003381  3.585492  0.005  -0.303736  -0.374731  0.011598  3.568885  0.014
N  N53  1  0.68945187  0.67359801  0.94498877  1  -0.4304  -0.035508  3.311137  -0.042  -0.395173  -0.007321  3.578212  -0.009  -0.422826  -0.003644  3.587097  -0.005  -0.303716  -0.373872  -0.011705  3.570305  -0.014
N  N54  1  0.25763031  0.12228183  0.58567068  1  -0.545309  0.030049  2.566964  0.032  -0.545122  0.003919  2.811855  0.004  -0.563098  0.00205  2.822039  0.002  -0.370997  -0.530494  0.008545  2.802992  0.009
N  N55  1  0.38064565  0.87749237  0.08555374  1  -0.543905  -0.034277  2.565432  -0.037  -0.545148  -0.005188  2.811253  -0.006  -0.563367  -0.002776  2.821639  -0.003  -0.370518  -0.530123  -0.008624  2.802946  -0.01
N  N56  1  0.98424187  0.16055923  0.36377054  1  -0.604046  0.044759  3.003699  0.052  -0.580057  0.036065  3.313549  0.045  -0.609037  0.031186  3.312586  0.04  -0.413318  -0.561541  0.03823  3.315936  0.046
N  N57  1  0.14513737  0.83942831  0.86354785  1  -0.604663  -0.043981  3.001826  -0.051  -0.580873  -0.035843  3.311599  -0.045  -0.609558  -0.031092  3.310565  -0.04  -0.413589  -0.563025  -0.038243  3.31436  -0.046
N  N58  1  0.05638363  0.88519166  0.43871175  1  -0.460168  0.001914  3.336766  0.003  -0.404988  0.000607  3.585132  0.001  -0.428836  0.000162  3.587073  0.001  -0.304079  -0.387826  0.001238  3.583051  0.002
N  N59  1  0.94175582  0.11483843  0.93819613  1  -0.461463  -0.002362  3.338793  -0.003  -0.405617  -0.00083  3.586845  -0.001  -0.429499  -0.00027  3.588825  -0.001  -0.304385  -0.388446  -0.001277  3.584562  -0.002
N  N60  1  0.21980583  0.69934150  0.58784678  1  -0.595533  -0.001027  2.843558  -0.003  -0.579936  -0.001536  3.12998  -0.003  -0.60243  -0.001304  3.13061  -0.003  -0.396551  -0.564793  -0.001531  3.129725  -0.003
N  N61  1  0.91918244  0.30060237  0.08779990  1  -0.59601  0.001098  2.84434  0.003  -0.579519  0.00155  3.130212  0.003  -0.601949  0.001299  3.130691  0.003  -0.395077  -0.563983  0.001495  3.130037  0.003
