# generated using pymatgen
data_LaH13C7S2O13
_symmetry_space_group_name_H-M   'P 1'
_cell_length_a   7.90245109
_cell_length_b   10.30273282
_cell_length_c   10.75826983
_cell_angle_alpha   115.60057243
_cell_angle_beta   94.08312417
_cell_angle_gamma   105.44088481
_symmetry_Int_Tables_number   1
_chemical_formula_structural   LaH13C7S2O13
_chemical_formula_sum   'La2 H26 C14 S4 O26'
_cell_volume   743.72242916
_cell_formula_units_Z   2
loop_
 _symmetry_equiv_pos_site_id
 _symmetry_equiv_pos_as_xyz
  1  'x, y, z'
loop_
 _atom_site_type_symbol
 _atom_site_label
 _atom_site_symmetry_multiplicity
 _atom_site_fract_x
 _atom_site_fract_y
 _atom_site_fract_z
 _atom_site_occupancy
 _atom_site_hle17_bader_spin_density
 _atom_site_hle17_ddec_charge
 _atom_site_hle17_ddec_spin_density
 _atom_site_hle17_ddec_sum_bond_order
 _atom_site_hle17_magmom
 _atom_site_hse06_10hf_bader_spin_density
 _atom_site_hse06_10hf_ddec_charge
 _atom_site_hse06_10hf_ddec_spin_density
 _atom_site_hse06_10hf_ddec_sum_bond_order
 _atom_site_hse06_10hf_magmom
 _atom_site_hse06_bader_spin_density
 _atom_site_hse06_ddec_charge
 _atom_site_hse06_ddec_spin_density
 _atom_site_hse06_ddec_sum_bond_order
 _atom_site_hse06_magmom
 _atom_site_pbe_bader_spin_density
 _atom_site_pbe_cm5_charge
 _atom_site_pbe_ddec_charge
 _atom_site_pbe_ddec_spin_density
 _atom_site_pbe_ddec_sum_bond_order
 _atom_site_pbe_magmom
La  La0  1  0.43827471  0.81451458  0.71631388  1  0  2.236441  0  1.681334  0  0  2.133382  0  2.162306  0  0  2.228183  0  2.058237  0  0  1.399408  2.060221  0  2.238518  0
La  La1  1  0.56172214  0.18548555  0.28368733  1  0  2.236441  0  1.681212  0  0  2.133388  0  2.162145  0  0  2.228197  0  2.058053  0  0  1.399428  2.060252  0  2.238384  0
H  H2  1  0.41766877  0.73621290  0.27125623  1  0  0.133159  0  0.931321  0  0  0.139703  0  0.993749  0  0  0.144252  0  0.989233  0  0  0.122871  0.136133  0  0.99746  0
H  H3  1  0.58232514  0.26378949  0.72874578  1  0  0.133149  0  0.931374  0  0  0.139703  0  0.993784  0  0  0.144251  0  0.989269  0  0  0.122876  0.136131  0  0.997492  0
H  H4  1  0.16037968  0.24739101  0.03622162  1  0  0.120447  0  0.943704  0  0  0.12621  0  1.012136  0  0  0.130502  0  1.008084  0  0  0.114319  0.12278  0  1.015646  0
H  H5  1  0.83962230  0.75261253  0.96378499  1  0  0.120393  0  0.943608  0  0  0.126151  0  1.012093  0  0  0.130436  0  1.008017  0  0  0.114331  0.122722  0  1.015604  0
H  H6  1  0.26190812  0.52021951  0.81884982  1  0  0.12531  0  0.965248  0  0  0.128341  0  1.036272  0  0  0.132904  0  1.031742  0  0  0.116118  0.124883  0  1.039754  0
H  H7  1  0.73809327  0.47977266  0.18114643  1  0  0.125393  0  0.965229  0  0  0.12834  0  1.036308  0  0  0.132907  0  1.031766  0  0  0.116143  0.124885  0  1.039775  0
H  H8  1  0.19160129  0.83915657  0.47541166  1  0  0.448296  0  0.84302  0  0  0.418738  0  0.903308  0  0  0.429395  0  0.887704  0  0  0.301891  0.41103  0  0.914599  0
H  H9  1  0.80839860  0.16085156  0.52458654  1  0  0.448283  0  0.843038  0  0  0.418727  0  0.903328  0  0  0.429385  0  0.887722  0  0  0.30188  0.411027  0  0.91461  0
H  H10  1  0.26852320  0.00160420  0.61059596  1  0  0.432716  0  0.86442  0  0  0.402019  0  0.928143  0  0  0.41247  0  0.912727  0  0  0.302384  0.394383  0  0.939408  0
H  H11  1  0.73148218  0.99840165  0.38940528  1  0  0.432616  0  0.864569  0  0  0.401951  0  0.92822  0  0  0.412405  0  0.912802  0  0  0.302378  0.39432  0  0.93948  0
H  H12  1  0.69735752  0.82808004  0.49849877  1  0  0.454067  0  0.828559  0  0  0.426781  0  0.884679  0  0  0.437167  0  0.869415  0  0  0.311197  0.41933  0  0.89563  0
H  H13  1  0.30264943  0.17191671  0.50149781  1  0  0.453998  0  0.828647  0  0  0.426707  0  0.884757  0  0  0.43709  0  0.869498  0  0  0.311183  0.419271  0  0.895683  0
H  H14  1  0.81109661  0.95110710  0.65027171  1  0  0.426399  0  0.87518  0  0  0.396039  0  0.93774  0  0  0.406621  0  0.92218  0  0  0.301426  0.38839  0  0.948978  0
H  H15  1  0.18891030  0.04888622  0.34972716  1  0  0.42633  0  0.875297  0  0  0.395978  0  0.937854  0  0  0.406548  0  0.92231  0  0  0.301381  0.388336  0  0.949082  0
H  H16  1  0.16105944  0.47648576  0.54317868  1  0  0.430064  0  0.84692  0  0  0.403876  0  0.910294  0  0  0.414073  0  0.895208  0  0  0.313307  0.39654  0  0.921164  0
H  H17  1  0.83893779  0.52351209  0.45681974  1  0  0.430036  0  0.846929  0  0  0.403845  0  0.910332  0  0  0.414042  0  0.895247  0  0  0.313284  0.396507  0  0.921205  0
H  H18  1  0.04853103  0.55948340  0.64684450  1  0  0.427927  0  0.873685  0  0  0.398371  0  0.934831  0  0  0.409054  0  0.91927  0  0  0.301458  0.390665  0  0.946054  0
H  H19  1  0.95147132  0.44051789  0.35315561  1  0  0.427978  0  0.873614  0  0  0.398419  0  0.934761  0  0  0.409105  0  0.919196  0  0  0.301463  0.390715  0  0.945981  0
H  H20  1  0.03707503  0.79325714  0.78341213  1  0  0.436717  0  0.853942  0  0  0.408864  0  0.911575  0  0  0.418538  0  0.897542  0  0  0.307843  0.401962  0  0.921582  0
H  H21  1  0.96292778  0.20674527  0.21659126  1  0  0.436595  0  0.854108  0  0  0.408754  0  0.911714  0  0  0.418428  0  0.897682  0  0  0.307807  0.40186  0  0.921711  0
H  H22  1  0.12105280  0.95380550  0.79391603  1  0  0.431719  0  0.865409  0  0  0.400713  0  0.929116  0  0  0.410955  0  0.914162  0  0  0.305728  0.393349  0  0.939877  0
H  H23  1  0.87894365  0.04619689  0.20608704  1  0  0.431702  0  0.865431  0  0  0.400702  0  0.929133  0  0  0.41094  0  0.914184  0  0  0.305741  0.393337  0  0.939901  0
H  H24  1  0.85220772  0.00783444  0.86246561  1  0  0.421705  0  0.877573  0  0  0.395646  0  0.933425  0  0  0.405427  0  0.919089  0  0  0.30219  0.388709  0  0.943556  0
H  H25  1  0.14779375  0.99216457  0.13753258  1  0  0.421719  0  0.877559  0  0  0.395673  0  0.933382  0  0  0.405445  0  0.919061  0  0  0.302224  0.388739  0  0.943511  0
H  H26  1  0.77355594  0.00980255  0.99228753  1  0  0.433081  0  0.863215  0  0  0.405869  0  0.921182  0  0  0.416896  0  0.905061  0  0  0.300774  0.39784  0  0.932933  0
H  H27  1  0.22643923  0.99019985  0.00771269  1  0  0.433147  0  0.863163  0  0  0.405945  0  0.921104  0  0  0.416972  0  0.904983  0  0  0.300838  0.397924  0  0.932841  0
C  C28  1  0.42971284  0.79417681  0.04819328  1  0  0.707558  0  3.874177  0  0  0.660455  0  4.168689  0  0  0.69723  0  4.1608  0  0  0.237344  0.635074  0  4.17305  0
C  C29  1  0.57028303  0.20581420  0.95180408  1  0  0.707689  0  3.873854  0  0  0.660485  0  4.168489  0  0  0.69726  0  4.160597  0  0  0.237402  0.635088  0  4.172854  0
C  C30  1  0.35012627  0.64283187  0.04523398  1  0  -0.06655  0  3.711732  0  0  -0.038399  0  3.946664  0  0  -0.049366  0  3.968465  0  0  -0.007644  -0.031554  0  3.932319  0
C  C31  1  0.64989091  0.35716830  0.95477291  1  0  -0.066609  0  3.71186  0  0  -0.038471  0  3.946806  0  0  -0.049437  0  3.96861  0  0  -0.007812  -0.031606  0  3.932435  0
C  C32  1  0.35771034  0.63332483  0.17134922  1  0  -0.017009  0  3.663459  0  0  -0.064134  0  3.921258  0  0  -0.05671  0  3.935171  0  0  -0.06193  -0.06893  0  3.912595  0
C  C33  1  0.64229451  0.36667305  0.82864959  1  0  -0.017113  0  3.663565  0  0  -0.064255  0  3.921379  0  0  -0.056824  0  3.935309  0  0  -0.061941  -0.069054  0  3.912711  0
C  C34  1  0.29004705  0.49155915  0.16636817  1  0  -0.121037  0  3.716315  0  0  -0.089901  0  3.968725  0  0  -0.100385  0  3.990158  0  0  -0.011303  -0.083356  0  3.954734  0
C  C35  1  0.70994345  0.50844094  0.83363642  1  0  -0.120901  0  3.716127  0  0  -0.089732  0  3.968492  0  0  -0.100253  0  3.989975  0  0  -0.011297  -0.083182  0  3.954494  0
C  C36  1  0.21016933  0.35797948  0.03858611  1  0  -0.038614  0  3.689021  0  0  -0.082659  0  3.941958  0  0  -0.077297  0  3.959476  0  0  -0.068605  -0.086052  0  3.930799  0
C  C37  1  0.78983310  0.64202519  0.96142378  1  0  -0.038515  0  3.689124  0  0  -0.0826  0  3.942104  0  0  -0.077203  0  3.959615  0  0  -0.068612  -0.085992  0  3.930951  0
C  C38  1  0.19912934  0.37116434  0.91488538  1  0  -0.119352  0  3.731313  0  0  -0.087944  0  3.984707  0  0  -0.098653  0  4.008432  0  0  -0.015083  -0.08138  0  3.969082  0
C  C39  1  0.80086792  0.62883695  0.08510983  1  0  -0.119438  0  3.731599  0  0  -0.088033  0  3.98492  0  0  -0.098738  0  4.008636  0  0  -0.015072  -0.081489  0  3.969326  0
C  C40  1  0.26984353  0.51170253  0.91658059  1  0  -0.03771  0  3.66271  0  0  -0.078061  0  3.909239  0  0  -0.072701  0  3.926475  0  0  -0.063973  -0.080922  0  3.897659  0
C  C41  1  0.73016934  0.48829309  0.08341861  1  0  -0.037748  0  3.663072  0  0  -0.077953  0  3.909496  0  0  -0.072595  0  3.926741  0  0  -0.063894  -0.080809  0  3.897904  0
S  S42  1  0.31629606  0.47945439  0.32583400  1  0  1.374982  0  5.565464  0  0  1.271671  0  6.081462  0  0  1.322644  0  6.057939  0  0  0.559832  1.236363  0  6.096473  0
S  S43  1  0.68370663  0.52054122  0.67416189  1  0  1.374782  0  5.565638  0  0  1.27148  0  6.081623  0  0  1.322453  0  6.058115  0  0  0.55975  1.23619  0  6.096609  0
S  S44  1  0.09282819  0.21108010  0.74719406  1  0  1.329503  0  5.586568  0  0  1.218254  0  6.111609  0  0  1.266335  0  6.088453  0  0  0.534488  1.185344  0  6.126198  0
S  S45  1  0.90716493  0.78892684  0.25280888  1  0  1.329555  0  5.586858  0  0  1.21834  0  6.111881  0  0  1.266398  0  6.088736  0  0  0.534425  1.185416  0  6.126488  0
O  O46  1  0.41936526  0.79754723  0.93156001  1  0  -0.705615  0  2.05529  0  0  -0.662636  0  2.32232  0  0  -0.697227  0  2.313112  0  0  -0.394618  -0.637104  0  2.327672  0
O  O47  1  0.58062453  0.20243469  0.06842395  1  0  -0.705649  0  2.055384  0  0  -0.662585  0  2.322385  0  0  -0.697171  0  2.313166  0  0  -0.394636  -0.637079  0  2.327776  0
O  O48  1  0.50312962  0.90981234  0.16788010  1  0  -0.692325  0  2.016959  0  0  -0.649295  0  2.274849  0  0  -0.682741  0  2.265289  0  0  -0.386732  -0.62454  0  2.280662  0
O  O49  1  0.49685978  0.09017186  0.83210479  1  0  -0.692416  0  2.016728  0  0  -0.649383  0  2.274713  0  0  -0.682828  0  2.265149  0  0  -0.386741  -0.624608  0  2.280509  0
O  O50  1  0.37172583  0.63569461  0.44037465  1  0  -0.701597  0  2.041373  0  0  -0.646  0  2.306959  0  0  -0.674044  0  2.294171  0  0  -0.352102  -0.625757  0  2.315432  0
O  O51  1  0.62827792  0.36431346  0.55963952  1  0  -0.701457  0  2.041971  0  0  -0.645842  0  2.30754  0  0  -0.673879  0  2.294753  0  0  -0.351997  -0.625619  0  2.316022  0
O  O52  1  0.45236562  0.40578239  0.32023107  1  0  -0.721809  0  2.060408  0  0  -0.675297  0  2.343249  0  0  -0.704646  0  2.329446  0  0  -0.378613  -0.653682  0  2.352203  0
O  O53  1  0.54762961  0.59422343  0.67977151  1  0  -0.721837  0  2.060168  0  0  -0.675305  0  2.34294  0  0  -0.70465  0  2.329139  0  0  -0.37857  -0.653702  0  2.351912  0
O  O54  1  0.13939646  0.38500015  0.32893865  1  0  -0.710023  0  2.017968  0  0  -0.641174  0  2.249639  0  0  -0.663417  0  2.231709  0  0  -0.319831  -0.625554  0  2.26198  0
O  O55  1  0.86060730  0.61501139  0.67106581  1  0  -0.709991  0  2.017823  0  0  -0.641161  0  2.24951  0  0  -0.663389  0  2.231567  0  0  -0.319888  -0.62555  0  2.261848  0
O  O56  1  0.23296556  0.18630777  0.66520110  1  0  -0.674083  0  2.00472  0  0  -0.611263  0  2.247357  0  0  -0.633384  0  2.231814  0  0  -0.319609  -0.595753  0  2.257779  0
O  O57  1  0.76703092  0.81369807  0.33479690  1  0  -0.674065  0  2.00507  0  0  -0.61125  0  2.247677  0  0  -0.633385  0  2.232155  0  0  -0.31956  -0.595716  0  2.258099  0
O  O58  1  0.95441416  0.25023778  0.68771198  1  0  -0.642043  0  1.976344  0  0  -0.587028  0  2.218013  0  0  -0.608876  0  2.204347  0  0  -0.320015  -0.571583  0  2.226987  0
O  O59  1  0.04558361  0.74976803  0.31229351  1  0  -0.642083  0  1.976201  0  0  -0.587062  0  2.21785  0  0  -0.608914  0  2.204194  0  0  -0.320018  -0.571608  0  2.226826  0
O  O60  1  0.01636235  0.07952364  0.77492734  1  0  -0.718566  0  2.050139  0  0  -0.643371  0  2.283225  0  0  -0.665398  0  2.265951  0  0  -0.328265  -0.627883  0  2.294812  0
O  O61  1  0.98363323  0.92047646  0.22507751  1  0  -0.718494  0  2.050241  0  0  -0.643407  0  2.283416  0  0  -0.665371  0  2.266094  0  0  -0.328254  -0.62792  0  2.29501  0
O  O62  1  0.26847297  0.89576177  0.57135245  1  0  -0.905364  0  1.850084  0  0  -0.861673  0  2.039079  0  0  -0.886165  0  2.005562  0  0  -0.643424  -0.843497  0  2.062976  0
O  O63  1  0.73152855  0.10424067  0.42864531  1  0  -0.905251  0  1.850289  0  0  -0.861578  0  2.039268  0  0  -0.886075  0  2.005744  0  0  -0.643373  -0.843403  0  2.063165  0
O  O64  1  0.69155260  0.87500919  0.59861398  1  0  -0.890092  0  1.834384  0  0  -0.846146  0  2.019633  0  0  -0.870571  0  1.986373  0  0  -0.638454  -0.82806  0  2.043216  0
O  O65  1  0.30845260  0.12498299  0.40138433  1  0  -0.889952  0  1.83457  0  0  -0.846  0  2.019843  0  0  -0.870424  0  1.986614  0  0  -0.638369  -0.827926  0  2.043422  0
O  O66  1  0.17210992  0.56031949  0.63637932  1  0  -0.867326  0  1.863385  0  0  -0.822304  0  2.050981  0  0  -0.845748  0  2.018805  0  0  -0.612705  -0.804914  0  2.073844  0
O  O67  1  0.82789121  0.43968522  0.36361937  1  0  -0.867337  0  1.863274  0  0  -0.822306  0  2.0509  0  0  -0.845752  0  2.018719  0  0  -0.612684  -0.804915  0  2.073761  0
O  O68  1  0.15041828  0.88019686  0.82033509  1  0  -0.865966  0  1.889002  0  0  -0.814176  0  2.065284  0  0  -0.838373  0  2.035166  0  0  -0.590179  -0.796433  0  2.086457  0
O  O69  1  0.84958027  0.11980441  0.17966575  1  0  -0.865843  0  1.889153  0  0  -0.814056  0  2.065419  0  0  -0.838257  0  2.035313  0  0  -0.590136  -0.796306  0  2.08659  0
O  O70  1  0.75786926  0.94707934  0.88891228  1  0  -0.87503  0  1.836716  0  0  -0.833502  0  2.017983  0  0  -0.857  0  1.986687  0  0  -0.619552  -0.8161  0  2.040364  0
O  O71  1  0.24213046  0.05291511  0.11108484  1  0  -0.875089  0  1.8367  0  0  -0.833574  0  2.018018  0  0  -0.857059  0  1.986699  0  0  -0.61962  -0.816179  0  2.0404  0
