# generated using pymatgen
data_LiH8C9N4O2F3
_symmetry_space_group_name_H-M   'P 1'
_cell_length_a   8.50048749
_cell_length_b   10.05828695
_cell_length_c   15.34777813
_cell_angle_alpha   102.76574325
_cell_angle_beta   99.44739422
_cell_angle_gamma   98.64443948
_symmetry_Int_Tables_number   1
_chemical_formula_structural   LiH8C9N4O2F3
_chemical_formula_sum   'Li4 H32 C36 N16 O8 F12'
_cell_volume   1238.47824799
_cell_formula_units_Z   4
loop_
 _symmetry_equiv_pos_site_id
 _symmetry_equiv_pos_as_xyz
  1  'x, y, z'
loop_
 _atom_site_type_symbol
 _atom_site_label
 _atom_site_symmetry_multiplicity
 _atom_site_fract_x
 _atom_site_fract_y
 _atom_site_fract_z
 _atom_site_occupancy
 _atom_site_hle17_bader_spin_density
 _atom_site_hle17_ddec_charge
 _atom_site_hle17_ddec_spin_density
 _atom_site_hle17_ddec_sum_bond_order
 _atom_site_hle17_magmom
 _atom_site_hse06_10hf_bader_spin_density
 _atom_site_hse06_10hf_ddec_charge
 _atom_site_hse06_10hf_ddec_spin_density
 _atom_site_hse06_10hf_ddec_sum_bond_order
 _atom_site_hse06_10hf_magmom
 _atom_site_hse06_bader_spin_density
 _atom_site_hse06_ddec_charge
 _atom_site_hse06_ddec_spin_density
 _atom_site_hse06_ddec_sum_bond_order
 _atom_site_hse06_magmom
 _atom_site_pbe_bader_spin_density
 _atom_site_pbe_cm5_charge
 _atom_site_pbe_ddec_charge
 _atom_site_pbe_ddec_spin_density
 _atom_site_pbe_ddec_sum_bond_order
 _atom_site_pbe_magmom
Li  Li0  1  0.92869052  0.72552041  0.37619002  1  0  0.809114  0  0.472574  0  0  0.741966  0  0.616056  0  0  0.753901  0  0.597805  0  0  0.528514  0.733689  0  0.628554  0
Li  Li1  1  0.07131129  0.27447820  0.62380985  1  0  0.809111  0  0.472591  0  0  0.741965  0  0.616057  0  0  0.753899  0  0.597816  0  0  0.528523  0.733685  0  0.628564  0
Li  Li2  1  0.76735236  0.27442420  0.01845419  1  0  0.840581  0  0.422254  0  0  0.777956  0  0.566982  0  0  0.789209  0  0.547518  0  0  0.517273  0.769889  0  0.581064  0
Li  Li3  1  0.23264515  0.72557650  0.98154625  1  0  0.840574  0  0.422264  0  0  0.777953  0  0.566967  0  0  0.789194  0  0.547539  0  0  0.517265  0.769871  0  0.581086  0
H  H4  1  0.28694653  0.92368510  0.37026645  1  0  0.056429  0  0.950714  0  0  0.071288  0  1.02168  0  0  0.071849  0  1.021789  0  0  0.08603  0.070769  0  1.021703  0
H  H5  1  0.71305409  0.07631352  0.62973396  1  0  0.056441  0  0.950712  0  0  0.071305  0  1.021678  0  0  0.071871  0  1.021785  0  0  0.086036  0.070786  0  1.021703  0
H  H6  1  0.09981650  0.96537119  0.32127596  1  0  0.088789  0  0.946409  0  0  0.103556  0  1.014353  0  0  0.104375  0  1.013911  0  0  0.09979  0.102876  0  1.014605  0
H  H7  1  0.90018387  0.03462639  0.67872298  1  0  0.088764  0  0.946413  0  0  0.10356  0  1.014324  0  0  0.10438  0  1.013885  0  0  0.099805  0.10288  0  1.01458  0
H  H8  1  0.23096637  0.90109238  0.24868003  1  0  0.085664  0  0.969321  0  0  0.10086  0  1.038676  0  0  0.102029  0  1.037829  0  0  0.094524  0.099878  0  1.039395  0
H  H9  1  0.76903759  0.09890520  0.75132053  1  0  0.085649  0  0.9693  0  0  0.100826  0  1.038691  0  0  0.101997  0  1.037848  0  0  0.09452  0.099843  0  1.039416  0
H  H10  1  0.29593389  0.68168349  0.35412875  1  0  0.048893  0  0.910749  0  0  0.063273  0  0.972893  0  0  0.064072  0  0.971817  0  0  0.100328  0.062569  0  0.973719  0
H  H11  1  0.70406673  0.31831513  0.64587167  1  0  0.048917  0  0.910729  0  0  0.063282  0  0.97287  0  0  0.064084  0  0.971798  0  0  0.100342  0.062577  0  0.973699  0
H  H12  1  0.25168278  0.65130386  0.23238088  1  0  0.068046  0  0.925433  0  0  0.081106  0  0.988003  0  0  0.081306  0  0.988219  0  0  0.103989  0.080982  0  0.98786  0
H  H13  1  0.74832022  0.34869476  0.76761975  1  0  0.068083  0  0.925419  0  0  0.081129  0  0.987987  0  0  0.081331  0  0.988204  0  0  0.104005  0.081005  0  0.987844  0
H  H14  1  0.99949005  0.48463418  0.21948697  1  0  0.066978  0  0.932642  0  0  0.076798  0  1.002909  0  0  0.077443  0  1.002311  0  0  0.108692  0.076213  0  1.003452  0
H  H15  1  0.00051199  0.51536548  0.78051307  1  0  0.066985  0  0.932688  0  0  0.076778  0  1.002925  0  0  0.077424  0  1.002326  0  0  0.108682  0.076193  0  1.003469  0
H  H16  1  0.16366261  0.43580885  0.28652686  1  0  0.066446  0  0.901805  0  0  0.08412  0  0.957456  0  0  0.084136  0  0.957595  0  0  0.10549  0.083899  0  0.957526  0
H  H17  1  0.83633920  0.56418976  0.71347301  1  0  0.066392  0  0.901763  0  0  0.084026  0  0.95741  0  0  0.084043  0  0.957549  0  0  0.10544  0.083805  0  0.95748  0
H  H18  1  0.91313814  0.33130869  0.36205216  1  0  0.060792  0  0.922128  0  0  0.074656  0  0.987042  0  0  0.074639  0  0.987267  0  0  0.100561  0.07464  0  0.986771  0
H  H19  1  0.08686367  0.66868993  0.63794837  1  0  0.060824  0  0.922104  0  0  0.074679  0  0.987028  0  0  0.074662  0  0.987253  0  0  0.100557  0.074663  0  0.986756  0
H  H20  1  0.79238568  0.40242488  0.28356722  1  0  0.067967  0  0.922439  0  0  0.077248  0  0.993116  0  0  0.078327  0  0.991685  0  0  0.106922  0.076403  0  0.994169  0
H  H21  1  0.20761613  0.59757373  0.71643331  1  0  0.067934  0  0.922451  0  0  0.077265  0  0.993071  0  0  0.078344  0  0.991644  0  0  0.106916  0.07642  0  0.994126  0
H  H22  1  0.66913524  0.40393027  0.41801340  1  0  0.061665  0  0.957939  0  0  0.075595  0  1.022416  0  0  0.075459  0  1.023019  0  0  0.100422  0.07569  0  1.022014  0
H  H23  1  0.33086537  0.59606835  0.58198571  1  0  0.061686  0  0.957953  0  0  0.075605  0  1.022435  0  0  0.075464  0  1.023036  0  0  0.10044  0.075702  0  1.022028  0
H  H24  1  0.85641133  0.49535743  0.49397341  1  0  0.062018  0  0.946412  0  0  0.072433  0  1.013605  0  0  0.073731  0  1.012664  0  0  0.103905  0.071485  0  1.014407  0
H  H25  1  0.14358905  0.50464014  0.50602684  1  0  0.062053  0  0.946403  0  0  0.072497  0  1.013566  0  0  0.073798  0  1.012624  0  0  0.103915  0.071549  0  1.01437  0
H  H26  1  0.53827559  0.60298082  0.47248051  1  0  0.070922  0  0.944256  0  0  0.088281  0  1.011411  0  0  0.089195  0  1.010676  0  0  0.092384  0.087483  0  1.012116  0
H  H27  1  0.46172884  0.39701884  0.52751910  1  0  0.070884  0  0.944273  0  0  0.088247  0  1.011437  0  0  0.08916  0  1.010705  0  0  0.092361  0.08745  0  1.012138  0
H  H28  1  0.63963597  0.77036503  0.46789188  1  0  0.085487  0  0.94084  0  0  0.102656  0  1.0054  0  0  0.102847  0  1.005969  0  0  0.102674  0.102477  0  1.00497  0
H  H29  1  0.36036965  0.22963462  0.53210848  1  0  0.085483  0  0.940824  0  0  0.102651  0  1.005395  0  0  0.102844  0  1.005964  0  0  0.10266  0.102472  0  1.004967  0
H  H30  1  0.72722790  0.68600415  0.54972232  1  0  0.079822  0  0.937082  0  0  0.094499  0  1.005472  0  0  0.095915  0  1.004079  0  0  0.09554  0.093441  0  1.006438  0
H  H31  1  0.27277509  0.31399446  0.45027766  1  0  0.079817  0  0.937112  0  0  0.094513  0  1.005494  0  0  0.09594  0  1.00409  0  0  0.095539  0.093455  0  1.006461  0
H  H32  1  0.74000122  0.04323870  0.89677691  1  0  0.403387  0  0.910101  0  0  0.36385  0  0.989525  0  0  0.374375  0  0.974165  0  0  0.277465  0.356174  0  1.00064  0
H  H33  1  0.26000130  0.95676303  0.10322348  1  0  0.40339  0  0.910098  0  0  0.36385  0  0.989529  0  0  0.374374  0  0.974168  0  0  0.277454  0.356173  0  1.000643  0
H  H34  1  0.61088592  0.12779769  0.85976936  1  0  0.401074  0  0.913535  0  0  0.363135  0  0.989874  0  0  0.373908  0  0.974054  0  0  0.279884  0.355569  0  1.00098  0
H  H35  1  0.38911398  0.87220300  0.14023064  1  0  0.401076  0  0.913527  0  0  0.363168  0  0.989795  0  0  0.373907  0  0.974052  0  0  0.279879  0.355567  0  1.00098  0
C  C36  1  0.34845442  0.20008069  0.74781382  1  0  0.158912  0  3.812211  0  0  0.13493  0  4.097768  0  0  0.140644  0  4.111234  0  0  0.197237  0.131574  0  4.088009  0
C  C37  1  0.65154667  0.79992001  0.25218629  1  0  0.159013  0  3.812121  0  0  0.13528  0  4.097163  0  0  0.140742  0  4.111177  0  0  0.197282  0.13167  0  4.087958  0
C  C38  1  0.39456119  0.99906019  0.69380474  1  0  0.084909  0  3.89657  0  0  0.07496  0  4.158779  0  0  0.077238  0  4.177384  0  0  0.104273  0.073404  0  4.146144  0
C  C39  1  0.60543894  0.00094155  0.30619543  1  0  0.085087  0  3.896663  0  0  0.075154  0  4.158869  0  0  0.077429  0  4.177462  0  0  0.104295  0.073595  0  4.146224  0
C  C40  1  0.25612720  0.02083386  0.63754326  1  0  0.06514  0  3.908423  0  0  0.059156  0  4.174515  0  0  0.058974  0  4.192702  0  0  0.099589  0.059579  0  4.162014  0
C  C41  1  0.74387389  0.97916683  0.36245685  1  0  0.065103  0  3.908382  0  0  0.059079  0  4.174556  0  0  0.058897  0  4.192712  0  0  0.099547  0.059503  0  4.162025  0
C  C42  1  0.46950069  0.88197886  0.68289018  1  0  0.255028  0  3.756507  0  0  0.244169  0  4.027074  0  0  0.254292  0  4.044225  0  0  0.192193  0.237331  0  4.015442  0
C  C43  1  0.53050351  0.11801456  0.31710981  1  0  0.254788  0  3.75636  0  0  0.243915  0  4.026966  0  0  0.254042  0  4.044112  0  0  0.192073  0.237076  0  4.015322  0
C  C44  1  0.15212062  0.92564193  0.56139917  1  0  0.308769  0  3.758479  0  0  0.295941  0  4.026779  0  0  0.308712  0  4.041736  0  0  0.220993  0.287058  0  4.01677  0
C  C45  1  0.84788285  0.07435876  0.43860115  1  0  0.308766  0  3.758489  0  0  0.295948  0  4.026808  0  0  0.308718  0  4.041762  0  0  0.221006  0.287064  0  4.016794  0
C  C46  1  0.37293298  0.34371694  0.80842552  1  0  0.751758  0  3.653447  0  0  0.669872  0  4.003464  0  0  0.702221  0  3.973869  0  0  0.32061  0.647715  0  4.022935  0
C  C47  1  0.62706834  0.65628479  0.19157476  1  0  0.751834  0  3.653334  0  0  0.67043  0  4.002377  0  0  0.70222  0  3.973868  0  0  0.320609  0.647705  0  4.022954  0
C  C48  1  0.18490247  0.89464156  0.31068828  1  0  -0.072252  0  3.66934  0  0  -0.165558  0  3.938475  0  0  -0.160574  0  3.943611  0  0  -0.146406  -0.168704  0  3.935012  0
C  C49  1  0.81509767  0.10535497  0.68931115  1  0  -0.072207  0  3.669217  0  0  -0.165565  0  3.938372  0  0  -0.160587  0  3.943517  0  0  -0.146431  -0.168712  0  3.934922  0
C  C50  1  0.19687393  0.65519290  0.29288121  1  0  0.072276  0  3.639553  0  0  0.017428  0  3.906404  0  0  0.023493  0  3.912167  0  0  -0.065325  0.013474  0  3.902116  0
C  C51  1  0.80312883  0.34480468  0.70711990  1  0  0.072263  0  3.639725  0  0  0.017421  0  3.906461  0  0  0.023482  0  3.912241  0  0  -0.065348  0.013465  0  3.902185  0
C  C52  1  0.08944981  0.51664837  0.28433430  1  0  0.058561  0  3.634796  0  0  -0.003716  0  3.912023  0  0  0.002628  0  3.917764  0  0  -0.066112  -0.007973  0  3.908088  0
C  C53  1  0.91055057  0.48334921  0.71566659  1  0  0.058557  0  3.634917  0  0  -0.003552  0  3.911945  0  0  0.002792  0  3.917692  0  0  -0.066045  -0.007809  0  3.908014  0
C  C54  1  0.87143866  0.42650145  0.35184554  1  0  0.056381  0  3.645332  0  0  -0.007221  0  3.926795  0  0  -0.000719  0  3.932229  0  0  -0.068601  -0.011549  0  3.923064  0
C  C55  1  0.12856410  0.57349612  0.64815426  1  0  0.056339  0  3.645382  0  0  -0.007261  0  3.926868  0  0  -0.000759  0  3.932306  0  0  -0.068611  -0.011589  0  3.923145  0
C  C56  1  0.78141008  0.47966908  0.42529768  1  0  0.048318  0  3.641789  0  0  -0.006557  0  3.908379  0  0  -0.001318  0  3.914812  0  0  -0.073547  -0.010246  0  3.904039  0
C  C57  1  0.21858910  0.52032850  0.57469985  1  0  0.048217  0  3.64187  0  0  -0.006679  0  3.9085  0  0  -0.001435  0  3.914931  0  0  -0.073591  -0.010371  0  3.904167  0
C  C58  1  0.65752127  0.66965234  0.47977388  1  0  -0.071004  0  3.686089  0  0  -0.163197  0  3.955539  0  0  -0.15778  0  3.959929  0  0  -0.140193  -0.166716  0  3.952464  0
C  C59  1  0.34248411  0.33034628  0.52022632  1  0  -0.070996  0  3.686041  0  0  -0.163227  0  3.955524  0  0  -0.157821  0  3.959914  0  0  -0.140159  -0.166747  0  3.952457  0
C  C60  1  0.96506689  0.85999083  0.89302052  1  0  0.147376  0  3.844608  0  0  0.127316  0  4.125101  0  0  0.131518  0  4.142713  0  0  0.192307  0.124963  0  4.112844  0
C  C61  1  0.03493038  0.14000883  0.10697910  1  0  0.147375  0  3.844593  0  0  0.127277  0  4.125114  0  0  0.1315  0  4.14271  0  0  0.192291  0.124923  0  4.112867  0
C  C62  1  0.84952397  0.68676613  0.93283903  1  0  0.087071  0  3.877659  0  0  0.080983  0  4.140494  0  0  0.08206  0  4.15847  0  0  0.111409  0.080382  0  4.128373  0
C  C63  1  0.15047354  0.31323457  0.06716076  1  0  0.087119  0  3.877672  0  0  0.080991  0  4.140585  0  0  0.082091  0  4.158498  0  0  0.11146  0.080428  0  4.128386  0
C  C64  1  0.73413604  0.76849739  0.91109388  1  0  0.080692  0  3.863734  0  0  0.069663  0  4.129926  0  0  0.071303  0  4.147193  0  0  0.10518  0.068094  0  4.118721  0
C  C65  1  0.26585932  0.23150435  0.08890457  1  0  0.080634  0  3.863917  0  0  0.069592  0  4.130146  0  0  0.07126  0  4.147353  0  0  0.105161  0.068044  0  4.118881  0
C  C66  1  0.82425064  0.56409636  0.96277417  1  0  0.326215  0  3.732694  0  0  0.304788  0  4.00991  0  0  0.318507  0  4.022957  0  0  0.224612  0.295203  0  4.001526  0
C  C67  1  0.17574735  0.43590642  0.03722726  1  0  0.326199  0  3.732761  0  0  0.304699  0  4.010162  0  0  0.318494  0  4.023029  0  0  0.224583  0.295187  0  4.00159  0
C  C68  1  0.56746046  0.74671801  0.91416116  1  0  0.332601  0  3.721561  0  0  0.31092  0  4.001808  0  0  0.324861  0  4.013812  0  0  0.220069  0.30125  0  3.994294  0
C  C69  1  0.43253490  0.25328373  0.08583663  1  0  0.332724  0  3.721496  0  0  0.310929  0  4.002071  0  0  0.324981  0  4.013736  0  0  0.22012  0.301372  0  3.994218  0
C  C70  1  0.09016986  0.95109198  0.86288641  1  0  0.751392  0  3.651497  0  0  0.6699  0  3.999833  0  0  0.700624  0  3.973966  0  0  0.316834  0.647842  0  4.018732  0
C  C71  1  0.90982645  0.04890872  0.13711262  1  0  0.751355  0  3.651751  0  0  0.66993  0  4.000016  0  0  0.700619  0  3.974173  0  0  0.316917  0.647869  0  4.018918  0
N  N72  1  0.22868777  0.15061948  0.67298663  1  0  -0.438146  0  3.075225  0  0  -0.418358  0  3.358524  0  0  -0.428436  0  3.371506  0  0  -0.377903  -0.411241  0  3.349204  0
N  N73  1  0.77131332  0.84938122  0.32701348  1  0  -0.438175  0  3.075178  0  0  -0.418363  0  3.358465  0  0  -0.428448  0  3.371475  0  0  -0.377895  -0.411254  0  3.349173  0
N  N74  1  0.45118462  0.11465195  0.76400268  1  0  -0.362913  0  3.041427  0  0  -0.325723  0  3.296779  0  0  -0.338793  0  3.310548  0  0  -0.302699  -0.316685  0  3.287075  0
N  N75  1  0.54881551  0.88534978  0.23599814  1  0  -0.363032  0  3.041442  0  0  -0.325673  0  3.296428  0  0  -0.338881  0  3.310535  0  0  -0.302715  -0.316774  0  3.287066  0
N  N76  1  0.06534954  0.84400374  0.49953372  1  0  -0.450522  0  2.664519  0  0  -0.426087  0  2.904229  0  0  -0.43572  0  2.912777  0  0  -0.354044  -0.419651  0  2.898613  0
N  N77  1  0.93465155  0.15599695  0.50046573  1  0  -0.450473  0  2.664487  0  0  -0.426037  0  2.904197  0  0  -0.435668  0  2.912745  0  0  -0.35401  -0.419598  0  2.898578  0
N  N78  1  0.53185102  0.78523261  0.67170421  1  0  -0.370625  0  2.553326  0  0  -0.350008  0  2.76316  0  0  -0.358944  0  2.775153  0  0  -0.293179  -0.344146  0  2.755273  0
N  N79  1  0.46814649  0.21477329  0.32829828  1  0  -0.370491  0  2.552888  0  0  -0.349865  0  2.762733  0  0  -0.358803  0  2.774731  0  0  -0.293089  -0.344003  0  2.754841  0
N  N80  1  0.81061637  0.87914275  0.88607722  1  0  -0.365126  0  3.029795  0  0  -0.330942  0  3.286009  0  0  -0.3439  0  3.301249  0  0  -0.30474  -0.32156  0  3.275378  0
N  N81  1  0.18938113  0.12085795  0.11392126  1  0  -0.365045  0  3.029831  0  0  -0.33085  0  3.286029  0  0  -0.343811  0  3.301274  0  0  -0.304698  -0.321463  0  3.275408  0
N  N82  1  0.99739410  0.74698192  0.92093642  1  0  -0.461993  0  3.051969  0  0  -0.434433  0  3.325886  0  0  -0.446502  0  3.339845  0  0  -0.380155  -0.425617  0  3.315769  0
N  N83  1  0.00260199  0.25301774  0.07906439  1  0  -0.462088  0  3.051892  0  0  -0.43452  0  3.325819  0  0  -0.446593  0  3.339781  0  0  -0.380225  -0.425706  0  3.31571  0
N  N84  1  0.43017581  0.72616876  0.91764350  1  0  -0.456108  0  2.630808  0  0  -0.435013  0  2.879001  0  0  -0.444256  0  2.883042  0  0  -0.349741  -0.429045  0  2.876889  0
N  N85  1  0.56981930  0.27383193  0.08235346  1  0  -0.456215  0  2.630738  0  0  -0.435241  0  2.879217  0  0  -0.444366  0  2.88298  0  0  -0.349785  -0.429156  0  2.876827  0
N  N86  1  0.80036412  0.46203818  0.98672503  1  0  -0.456521  0  2.647433  0  0  -0.432178  0  2.895601  0  0  -0.44223  0  2.901163  0  0  -0.355329  -0.425711  0  2.892731  0
N  N87  1  0.19963601  0.53796356  0.01327580  1  0  -0.456524  0  2.647489  0  0  -0.432152  0  2.895726  0  0  -0.442231  0  2.901221  0  0  -0.35532  -0.425711  0  2.892787  0
O  O88  1  0.09683712  0.75774567  0.30087595  1  0  -0.343573  0  2.375519  0  0  -0.2685  0  2.634212  0  0  -0.283324  0  2.634751  0  0  -0.287582  -0.258195  0  2.63358  0
O  O89  1  0.90316373  0.24225399  0.69912398  1  0  -0.343613  0  2.37553  0  0  -0.268513  0  2.634193  0  0  -0.283337  0  2.634742  0  0  -0.287578  -0.258205  0  2.633566  0
O  O90  1  0.00716228  0.53540670  0.35942895  1  0  -0.368029  0  2.326231  0  0  -0.29429  0  2.582696  0  0  -0.309712  0  2.582931  0  0  -0.266045  -0.28353  0  2.582261  0
O  O91  1  0.99283953  0.46459191  0.64057158  1  0  -0.367974  0  2.326274  0  0  -0.294349  0  2.582754  0  0  -0.309771  0  2.582992  0  0  -0.266037  -0.283587  0  2.582323  0
O  O92  1  0.74283035  0.60946016  0.41326969  1  0  -0.342341  0  2.361566  0  0  -0.268499  0  2.621049  0  0  -0.282989  0  2.621636  0  0  -0.281994  -0.258179  0  2.619869  0
O  O93  1  0.25717408  0.39053949  0.58673057  1  0  -0.342246  0  2.36149  0  0  -0.268395  0  2.620966  0  0  -0.282885  0  2.621565  0  0  -0.281972  -0.258073  0  2.619794  0
O  O94  1  0.70671256  0.13489695  0.90841478  1  0  -0.926996  0  1.834389  0  0  -0.880204  0  2.026692  0  0  -0.896289  0  1.992481  0  0  -0.689038  -0.868536  0  2.051202  0
O  O95  1  0.29328853  0.86510374  0.09158598  1  0  -0.927002  0  1.834372  0  0  -0.880157  0  2.026556  0  0  -0.896294  0  1.992473  0  0  -0.689026  -0.868543  0  2.051194  0
F  F96  1  0.49445535  0.43354570  0.79007775  1  0  -0.269154  0  1.140536  0  0  -0.225831  0  1.299115  0  0  -0.239674  0  1.28827  0  0  -0.099375  -0.217875  0  1.309274  0
F  F97  1  0.50554884  0.56645291  0.20992234  1  0  -0.269184  0  1.140496  0  0  -0.225552  0  1.29887  0  0  -0.239697  0  1.288264  0  0  -0.099379  -0.217894  0  1.309275  0
F  F98  1  0.41588934  0.34517602  0.89790102  1  0  -0.243823  0  1.174432  0  0  -0.200505  0  1.336548  0  0  -0.214891  0  1.325581  0  0  -0.079421  -0.192067  0  1.346163  0
F  F99  1  0.58410602  0.65482572  0.10209872  1  0  -0.24385  0  1.174342  0  0  -0.202979  0  1.338863  0  0  -0.214919  0  1.325527  0  0  -0.079436  -0.192082  0  1.346107  0
F  F100  1  0.23602670  0.39804015  0.79716195  1  0  -0.249079  0  1.204931  0  0  -0.205968  0  1.377011  0  0  -0.215023  0  1.360072  0  0  -0.065702  -0.19891  0  1.388301  0
F  F101  1  0.76397461  0.60196158  0.20283442  1  0  -0.249121  0  1.20495  0  0  -0.205668  0  1.376748  0  0  -0.215018  0  1.360097  0  0  -0.065703  -0.198904  0  1.388332  0
F  F102  1  0.06511917  0.08355164  0.87461931  1  0  -0.237575  0  1.164358  0  0  -0.193597  0  1.325441  0  0  -0.205172  0  1.312622  0  0  -0.082188  -0.185199  0  1.334313  0
F  F103  1  0.93487453  0.91644802  0.12537933  1  0  -0.237598  0  1.164336  0  0  -0.193639  0  1.325366  0  0  -0.205227  0  1.312621  0  0  -0.082245  -0.18526  0  1.334299  0
F  F104  1  0.24355333  0.95534717  0.90720419  1  0  -0.244718  0  1.178487  0  0  -0.201402  0  1.341901  0  0  -0.211739  0  1.326834  0  0  -0.074299  -0.193855  0  1.352423  0
F  F105  1  0.75644488  0.04465664  0.09279546  1  0  -0.244638  0  1.178699  0  0  -0.201332  0  1.342095  0  0  -0.211663  0  1.327043  0  0  -0.074259  -0.19379  0  1.352628  0
F  F106  1  0.08648520  0.90156262  0.77089434  1  0  -0.278968  0  1.135376  0  0  -0.234936  0  1.296307  0  0  -0.245783  0  1.282366  0  0  -0.106078  -0.226779  0  1.30559  0
F  F107  1  0.91351088  0.09843704  0.22910517  1  0  -0.278976  0  1.135382  0  0  -0.234951  0  1.296291  0  0  -0.245789  0  1.282356  0  0  -0.10612  -0.226794  0  1.305574  0
