# generated using pymatgen
data_AgH7C8(N2O)3
_symmetry_space_group_name_H-M   'P 1'
_cell_length_a   6.78237197
_cell_length_b   9.90585349
_cell_length_c   9.63934003
_cell_angle_alpha   59.07849388
_cell_angle_beta   81.60180606
_cell_angle_gamma   73.51362951
_symmetry_Int_Tables_number   1
_chemical_formula_structural   AgH7C8(N2O)3
_chemical_formula_sum   'Ag2 H14 C16 N12 O6'
_cell_volume   532.73456844
_cell_formula_units_Z   2
loop_
 _symmetry_equiv_pos_site_id
 _symmetry_equiv_pos_as_xyz
  1  'x, y, z'
loop_
 _atom_site_type_symbol
 _atom_site_label
 _atom_site_symmetry_multiplicity
 _atom_site_fract_x
 _atom_site_fract_y
 _atom_site_fract_z
 _atom_site_occupancy
 _atom_site_pbe_bader_spin_density
 _atom_site_pbe_cm5_charge
 _atom_site_pbe_ddec_charge
 _atom_site_pbe_ddec_spin_density
 _atom_site_pbe_ddec_sum_bond_order
 _atom_site_pbe_magmom
Ag  Ag0  1  0.25785582  0.87739622  0.23418010  1  0  0.4787  0.322903  0  1.900123  0
Ag  Ag1  1  0.75775294  0.11135498  0.76572211  1  0  0.478375  0.32323  0  1.899062  0
H  H2  1  0.48164730  0.83146024  0.71130323  1  0  0.110942  0.13401  0  1.013371  0
H  H3  1  0.98228729  0.54288805  0.28881602  1  0  0.110927  0.13346  0  1.0145  0
H  H4  1  0.32434612  0.12553528  0.51190842  1  0  0.106149  0.112523  0  1.03813  0
H  H5  1  0.82494852  0.63764373  0.48818264  1  0  0.105898  0.112706  0  1.038211  0
H  H6  1  0.14135793  0.31001237  0.62465743  1  0  0.114131  0.131532  0  0.986294  0
H  H7  1  0.64152082  0.93483111  0.37524927  1  0  0.11377  0.131291  0  0.985259  0
H  H8  1  0.12565220  0.19534075  0.92313058  1  0  0.115865  0.098869  0  1.026264  0
H  H9  1  0.62531219  0.11831743  0.07679947  1  0  0.116306  0.099505  0  1.027841  0
H  H10  1  0.54279615  0.61503458  0.97308879  1  0  0.122847  0.098492  0  1.055964  0
H  H11  1  0.04358044  0.58808332  0.02703528  1  0  0.122914  0.098305  0  1.057917  0
H  H12  1  0.48425270  0.48769767  0.50710080  1  0  0.139915  0.109605  0  1.062978  0
H  H13  1  0.98402180  0.99474787  0.49297055  1  0  0.139688  0.109318  0  1.063478  0
H  H14  1  0.69625087  0.36159474  0.14025693  1  0  0.141901  0.129609  0  1.036682  0
H  H15  1  0.19694942  0.50192780  0.85968317  1  0  0.142036  0.129612  0  1.037264  0
C  C16  1  0.37870324  0.86124985  0.91753645  1  0  0.106766  0.180223  0  4.02038  0
C  C17  1  0.87892600  0.77870366  0.08258628  1  0  0.106993  0.179423  0  4.019085  0
C  C18  1  0.39840712  0.91733324  0.75121297  1  0  -0.079236  -0.162472  0  3.924534  0
C  C19  1  0.89890827  0.66862098  0.24891556  1  0  -0.079131  -0.160081  0  3.925578  0
C  C20  1  0.31271432  0.07987241  0.64195586  1  0  -0.06932  -0.027769  0  3.955386  0
C  C21  1  0.81321886  0.72194832  0.35812702  1  0  -0.068855  -0.02903  0  3.95548  0
C  C22  1  0.21109348  0.18179582  0.70318625  1  0  -0.07951  -0.119868  0  3.954624  0
C  C23  1  0.71134255  0.88506874  0.29677898  1  0  -0.079334  -0.119215  0  3.952118  0
C  C24  1  0.20004251  0.11861210  0.87074360  1  0  0.046263  0.087759  0  3.922553  0
C  C25  1  0.69992273  0.98926447  0.12920891  1  0  0.046111  0.086957  0  3.925339  0
C  C26  1  0.46890638  0.68964068  0.02893609  1  0  0.075778  0.018522  0  3.888216  0
C  C27  1  0.96931257  0.71848662  0.97119611  1  0  0.075713  0.019418  0  3.889405  0
C  C28  1  0.56552529  0.41921292  0.44744308  1  0  0.168728  0.076016  0  3.85121  0
C  C29  1  0.06555369  0.86666526  0.55260841  1  0  0.168352  0.075347  0  3.850877  0
C  C30  1  0.67469506  0.35391198  0.25798122  1  0  0.159726  0.067616  0  3.863548  0
C  C31  1  0.17526573  0.61199238  0.74199846  1  0  0.159674  0.067847  0  3.862139  0
N  N32  1  0.28109821  0.96183174  0.97628494  1  0  -0.342651  -0.229863  0  3.575495  0
N  N33  1  0.78102717  0.93797252  0.02372324  1  0  -0.342932  -0.230195  0  3.5744  0
N  N34  1  0.46308907  0.63665373  0.18242826  1  0  -0.200387  -0.165172  0  3.378894  0
N  N35  1  0.96310170  0.81891279  0.81773675  1  0  -0.200402  -0.165845  0  3.382  0
N  N36  1  0.55933114  0.47825306  0.28454380  1  0  -0.117221  0.148724  0  3.770409  0
N  N37  1  0.05951603  0.76277220  0.71552049  1  0  -0.117315  0.149219  0  3.771046  0
N  N38  1  0.67854134  0.26885475  0.51549494  1  0  -0.26455  -0.13698  0  3.57518  0
N  N39  1  0.17876070  0.78450867  0.48447488  1  0  -0.263238  -0.134926  0  3.571188  0
N  N40  1  0.74818403  0.22686715  0.39647681  1  0  -0.218255  -0.190619  0  3.189182  0
N  N41  1  0.24873493  0.62355048  0.60342501  1  0  -0.219371  -0.192308  0  3.185733  0
N  N42  1  0.20315607  0.26599564  0.19597543  1  0  0.095436  0.726652  0  4.429426  0
N  N43  1  0.70340379  0.46185178  0.80387006  1  0  0.094891  0.725157  0  4.432145  0
O  O44  1  0.28854704  0.11620966  0.28085860  1  0  -0.199572  -0.466209  0  2.054019  0
O  O45  1  0.78890774  0.39701405  0.71893221  1  0  -0.1989  -0.465769  0  2.055791  0
O  O46  1  0.10196016  0.31706231  0.07015668  1  0  -0.203786  -0.471494  0  1.962861  0
O  O47  1  0.60207588  0.38704754  0.92963872  1  0  -0.204666  -0.47212  0  1.963817  0
O  O48  1  0.21865802  0.36476752  0.23788589  1  0  -0.208329  -0.472635  0  1.958424  0
O  O49  1  0.71889266  0.60251515  0.76207231  1  0  -0.207832  -0.471277  0  1.956968  0
