# generated using pymatgen
data_Cu2H20C21S2(IN2)2
_symmetry_space_group_name_H-M   'P 1'
_cell_length_a   9.37867164
_cell_length_b   10.20039974
_cell_length_c   13.60413295
_cell_angle_alpha   78.58521463
_cell_angle_beta   83.90128050
_cell_angle_gamma   65.28788472
_symmetry_Int_Tables_number   1
_chemical_formula_structural   Cu2H20C21S2(IN2)2
_chemical_formula_sum   'Cu4 H40 C42 S4 I4 N8'
_cell_volume   1158.47925200
_cell_formula_units_Z   2
loop_
 _symmetry_equiv_pos_site_id
 _symmetry_equiv_pos_as_xyz
  1  'x, y, z'
loop_
 _atom_site_type_symbol
 _atom_site_label
 _atom_site_symmetry_multiplicity
 _atom_site_fract_x
 _atom_site_fract_y
 _atom_site_fract_z
 _atom_site_occupancy
 _atom_site_pbe_bader_spin_density
 _atom_site_pbe_cm5_charge
 _atom_site_pbe_ddec_charge
 _atom_site_pbe_ddec_spin_density
 _atom_site_pbe_ddec_sum_bond_order
 _atom_site_pbe_magmom
Cu  Cu0  1  0.68894778  0.32099857  0.11375512  1  0  0.221662  0.185901  0  2.757658  0
Cu  Cu1  1  0.31105367  0.67900118  0.88624562  1  0  0.22165  0.185874  0  2.757675  0
Cu  Cu2  1  0.39222699  0.52015498  0.06637465  1  0  0.170935  0.103786  0  2.823688  0
Cu  Cu3  1  0.60777494  0.47984367  0.93362622  1  0  0.170931  0.103765  0  2.823717  0
H  H4  1  0.45651864  0.88491432  0.09986850  1  0  0.10257  0.12294  0  1.073584  0
H  H5  1  0.54348115  0.11508433  0.90013105  1  0  0.10254  0.12291  0  1.073644  0
H  H6  1  0.15067301  0.09776811  0.07538188  1  0  0.108696  0.120006  0  1.066837  0
H  H7  1  0.84932892  0.90223055  0.92461824  1  0  0.1087  0.120007  0  1.066849  0
H  H8  1  0.03430837  0.35819139  0.07025123  1  0  0.120568  0.094206  0  0.99895  0
H  H9  1  0.96569570  0.64180727  0.92974947  1  0  0.120548  0.094172  0  0.998997  0
H  H10  1  0.15154309  0.45252025  0.09028675  1  0  0.103741  0.072948  0  1.063461  0
H  H11  1  0.84846039  0.54747732  0.90971343  1  0  0.103722  0.072965  0  1.063441  0
H  H12  1  0.09031122  0.56955195  0.23863605  1  0  0.112063  0.119507  0  1.060895  0
H  H13  1  0.90969274  0.43044452  0.76136499  1  0  0.112064  0.119498  0  1.060931  0
H  H14  1  0.84973290  0.60395051  0.38339020  1  0  0.119817  0.122994  0  1.056892  0
H  H15  1  0.15027010  0.39604815  0.61660985  1  0  0.119808  0.123001  0  1.056903  0
H  H16  1  0.71372275  0.05652911  0.14967529  1  0  0.094136  0.087899  0  1.041915  0
H  H17  1  0.28627966  0.94346845  0.85032570  1  0  0.094146  0.08792  0  1.041875  0
H  H18  1  0.70731634  0.89126436  0.13229307  1  0  0.108901  0.103226  0  0.983812  0
H  H19  1  0.29268559  0.10873430  0.86770706  1  0  0.108896  0.103226  0  0.983797  0
H  H20  1  0.91595315  0.90491669  0.27930623  1  0  0.091514  0.104226  0  1.035042  0
H  H21  1  0.08404985  0.09508197  0.72069602  1  0  0.091506  0.10424  0  1.03504  0
H  H22  1  0.96284942  0.80230214  0.45893646  1  0  0.093007  0.090555  0  1.058715  0
H  H23  1  0.03715037  0.19769651  0.54106530  1  0  0.093012  0.090569  0  1.058699  0
H  H24  1  0.75013672  0.76206865  0.57100911  1  0  0.092849  0.093906  0  1.016325  0
H  H25  1  0.24986151  0.23793109  0.42899187  1  0  0.092833  0.093877  0  1.016314  0
H  H26  1  0.49060521  0.82676858  0.49907686  1  0  0.095202  0.094849  0  1.030626  0
H  H27  1  0.50939505  0.17322897  0.50092208  1  0  0.095212  0.094857  0  1.030587  0
H  H28  1  0.44482823  0.92675584  0.31976030  1  0  0.093498  0.096057  0  1.0545  0
H  H29  1  0.55517466  0.07324063  0.68023861  1  0  0.093521  0.096079  0  1.054501  0
H  H30  1  0.65039512  0.37043379  0.33354022  1  0  0.103874  0.100463  0  1.016396  0
H  H31  1  0.34960380  0.62956925  0.66645654  1  0  0.103888  0.100471  0  1.016392  0
H  H32  1  0.61465043  0.53276703  0.38036190  1  0  0.110793  0.099601  0  0.995965  0
H  H33  1  0.38534850  0.46723601  0.61963486  1  0  0.110811  0.099592  0  0.995935  0
H  H34  1  0.80795156  0.12350029  0.43607387  1  0  0.093363  0.09699  0  1.053643  0
H  H35  1  0.19204989  0.87649946  0.56392613  1  0  0.093378  0.097016  0  1.05362  0
H  H36  1  0.86194581  0.98026396  0.60954171  1  0  0.094607  0.094425  0  1.017756  0
H  H37  1  0.13804787  0.01974124  0.39046027  1  0  0.094594  0.094401  0  1.017716  0
H  H38  1  0.80563416  0.11010067  0.75514341  1  0  0.083627  0.082089  0  1.070129  0
H  H39  1  0.19435331  0.88990890  0.24485764  1  0  0.083627  0.082061  0  1.070087  0
H  H40  1  0.69784309  0.38080228  0.72859401  1  0  0.08031  0.081567  0  1.066367  0
H  H41  1  0.30214770  0.61920951  0.27140279  1  0  0.080306  0.081586  0  1.06644  0
H  H42  1  0.65216695  0.52414205  0.55460900  1  0  0.097243  0.100188  0  1.018105  0
H  H43  1  0.34783043  0.47586209  0.44538551  1  0  0.097242  0.100166  0  1.018096  0
C  C44  1  0.39748194  0.20123207  0.15767649  1  0  0.214144  0.226885  0  3.957822  0
C  C45  1  0.60251999  0.79876658  0.84232437  1  0  0.214135  0.226879  0  3.957871  0
C  C46  1  0.40445988  0.99778836  0.11193660  1  0  0.004562  -0.079194  0  3.92918  0
C  C47  1  0.59553942  0.00221138  0.88806356  1  0  0.004559  -0.079218  0  3.929226  0
C  C48  1  0.25505779  0.10111220  0.10002169  1  0  0.003518  -0.083137  0  3.956387  0
C  C49  1  0.74494414  0.89888645  0.89997844  1  0  0.003499  -0.083114  0  3.95648  0
C  C50  1  0.11433707  0.36333136  0.12129599  1  0  0.051823  0.039724  0  3.850849  0
C  C51  1  0.88566641  0.63666621  0.87870418  1  0  0.051881  0.039842  0  3.850725  0
C  C52  1  0.92181109  0.33982807  0.25648370  1  0  0.208181  0.224129  0  4.047496  0
C  C53  1  0.07819036  0.66017168  0.74351631  1  0  0.20814  0.224051  0  4.047568  0
C  C54  1  0.01698816  0.50972910  0.26168131  1  0  -0.001053  -0.088175  0  3.95476  0
C  C55  1  0.98301532  0.49026846  0.73832033  1  0  -0.001005  -0.088121  0  3.95475  0
C  C56  1  0.89860838  0.52691660  0.33167059  1  0  0.003376  -0.080607  0  3.939029  0
C  C57  1  0.10139307  0.47308315  0.66832942  1  0  0.003357  -0.080669  0  3.939038  0
C  C58  1  0.65488063  0.98167514  0.17549004  1  0  -0.0473  -0.093298  0  3.868301  0
C  C59  1  0.34512023  0.01832351  0.82451090  1  0  -0.047291  -0.093343  0  3.868237  0
C  C60  1  0.67699597  0.92367656  0.28674550  1  0  -0.015041  0.090821  0  3.962763  0
C  C61  1  0.32300799  0.07631991  0.71325480  1  0  -0.015006  0.090903  0  3.962793  0
C  C62  1  0.82235832  0.88782313  0.32730166  1  0  -0.095474  -0.133707  0  3.958149  0
C  C63  1  0.17764254  0.11217552  0.67269928  1  0  -0.095541  -0.133864  0  3.958281  0
C  C64  1  0.84890743  0.82968746  0.42890239  1  0  -0.095598  -0.079498  0  4.01035  0
C  C65  1  0.15109236  0.17031119  0.57109937  1  0  -0.095587  -0.079478  0  4.010322  0
C  C66  1  0.73014724  0.80689588  0.49146266  1  0  -0.099287  -0.103676  0  4.023142  0
C  C67  1  0.26985147  0.19310276  0.50853771  1  0  -0.099244  -0.103598  0  4.022913  0
C  C68  1  0.58512082  0.84230775  0.45130278  1  0  -0.094842  -0.076221  0  4.028123  0
C  C69  1  0.41487993  0.15768871  0.54869776  1  0  -0.09491  -0.076346  0  4.028086  0
C  C70  1  0.55882805  0.90007505  0.34955236  1  0  -0.100815  -0.146369  0  3.975234  0
C  C71  1  0.44117473  0.09991923  0.65044688  1  0  -0.100818  -0.146308  0  3.975297  0
C  C72  1  0.69795125  0.41887213  0.37985488  1  0  -0.053727  -0.108642  0  3.899423  0
C  C73  1  0.30204816  0.58112981  0.62014274  1  0  -0.053734  -0.108609  0  3.89934  0
C  C74  1  0.72694695  0.33269377  0.48464973  1  0  -0.019793  0.077544  0  3.987434  0
C  C75  1  0.27305187  0.66730707  0.51534810  1  0  -0.019743  0.077599  0  3.987301  0
C  C76  1  0.78498681  0.17938274  0.50037240  1  0  -0.09277  -0.136504  0  3.962636  0
C  C77  1  0.21501164  0.82062139  0.49962571  1  0  -0.092787  -0.136571  0  3.962676  0
C  C78  1  0.81423400  0.09955189  0.59742206  1  0  -0.090421  -0.07106  0  3.996229  0
C  C79  1  0.18576531  0.90044785  0.40257884  1  0  -0.090384  -0.07097  0  3.996448  0
C  C80  1  0.78328006  0.17223155  0.67928907  1  0  -0.096182  -0.087864  0  4.00525  0
C  C81  1  0.21671063  0.82777804  0.32071027  1  0  -0.096143  -0.087782  0  4.005078  0
C  C82  1  0.72396663  0.32480837  0.66413951  1  0  -0.098214  -0.076771  0  4.007582  0
C  C83  1  0.27602587  0.67519465  0.33585625  1  0  -0.098327  -0.077019  0  4.00748  0
C  C84  1  0.69727000  0.40477691  0.56693001  1  0  -0.094954  -0.138211  0  3.978818  0
C  C85  1  0.30272524  0.59522720  0.43306980  1  0  -0.094949  -0.138099  0  3.978688  0
S  S86  1  0.45236109  0.32319552  0.19551885  1  0  -0.219137  -0.299397  0  2.99321  0
S  S87  1  0.54763977  0.67680313  0.80448210  1  0  -0.219137  -0.299376  0  2.993211  0
S  S88  1  0.89551299  0.19976900  0.22474327  1  0  -0.216766  -0.383323  0  2.713529  0
S  S89  1  0.10448786  0.80022965  0.77525693  1  0  -0.216758  -0.383293  0  2.713537  0
I  I90  1  0.63204034  0.60278945  0.09746217  1  0  -0.17296  -0.297825  0  1.96189  0
I  I91  1  0.36795956  0.39721139  0.90253779  1  0  -0.172957  -0.297823  0  1.961899  0
I  I92  1  0.84567678  0.22629650  0.94695330  1  0  -0.211749  -0.328948  0  1.804702  0
I  I93  1  0.15432515  0.77370216  0.05304609  1  0  -0.211764  -0.328961  0  1.804716  0
N  N94  1  0.49092828  0.05973515  0.14757142  1  0  -0.233148  0.012747  0  3.733125  0
N  N95  1  0.50907413  0.94026241  0.85242957  1  0  -0.23309  0.01289  0  3.733017  0
N  N96  1  0.25131295  0.22528508  0.12934017  1  0  -0.242723  -0.021862  0  3.746154  0
N  N97  1  0.74869054  0.77471249  0.87066074  1  0  -0.242743  -0.022061  0  3.746326  0
N  N98  1  0.03027659  0.39494737  0.21540834  1  0  -0.247454  -0.034236  0  3.729058  0
N  N99  1  0.96972689  0.60505019  0.78459257  1  0  -0.247462  -0.034211  0  3.729043  0
N  N100  1  0.84037832  0.42381183  0.32708587  1  0  -0.239144  0.008381  0  3.737787  0
N  N101  1  0.15962157  0.57618901  0.67291335  1  0  -0.239151  0.00838  0  3.737728  0
