# generated using pymatgen
data_ZnH13C16N3O4
_symmetry_space_group_name_H-M   'P 1'
_cell_length_a   8.68364580
_cell_length_b   11.52237061
_cell_length_c   15.43000000
_cell_angle_alpha   90.00000000
_cell_angle_beta   90.00000000
_cell_angle_gamma   91.72894781
_symmetry_Int_Tables_number   1
_chemical_formula_structural   ZnH13C16N3O4
_chemical_formula_sum   'Zn4 H52 C64 N12 O16'
_cell_volume   1543.16408215
_cell_formula_units_Z   4
loop_
 _symmetry_equiv_pos_site_id
 _symmetry_equiv_pos_as_xyz
  1  'x, y, z'
loop_
 _atom_site_type_symbol
 _atom_site_label
 _atom_site_symmetry_multiplicity
 _atom_site_fract_x
 _atom_site_fract_y
 _atom_site_fract_z
 _atom_site_occupancy
 _atom_site_pbe_bader_charge
 _atom_site_pbe_bader_spin_density
 _atom_site_pbe_cm5_charge
 _atom_site_pbe_ddec_charge
 _atom_site_pbe_ddec_spin_density
 _atom_site_pbe_ddec_sum_bond_order
 _atom_site_pbe_magmom
Zn  Zn0  1  0.77011890  0.63236962  0.83578937  1  1.250637  0  0.694343  0.767245  0  2.400407  0
Zn  Zn1  1  0.72987877  0.86763580  0.33578548  1  1.250579  0  0.694372  0.767381  0  2.400544  0
Zn  Zn2  1  0.22987547  0.36763776  0.16421581  1  1.250726  0  0.694357  0.7673  0  2.400489  0
Zn  Zn3  1  0.27011759  0.13236376  0.66421128  1  1.250671  0  0.694294  0.767178  0  2.400483  0
H  H4  1  0.13747762  0.40301811  0.84579261  1  0.496878  0  0.329106  0.307665  0  0.915652  0
H  H5  1  0.36252661  0.09697472  0.34579261  1  0.497008  0  0.329072  0.307697  0  0.915759  0
H  H6  1  0.86252213  0.59697972  0.15421063  1  0.497445  0  0.329115  0.307696  0  0.915635  0
H  H7  1  0.63747875  0.90301963  0.65420739  1  0.496927  0  0.329074  0.30765  0  0.915703  0
H  H8  1  0.42488710  0.48618384  0.64486844  1  0.09518  0  0.10126  0.119034  0  1.022751  0
H  H9  1  0.07511487  0.01380987  0.14486196  1  0.095204  0  0.101185  0.11892  0  1.022912  0
H  H10  1  0.57510543  0.51380618  0.35514193  1  0.09491  0  0.101165  0.118841  0  1.023013  0
H  H11  1  0.92488962  0.98619143  0.85514128  1  0.094833  0  0.101163  0.1189  0  1.02294  0
H  H12  1  0.66046089  0.56531470  0.50580039  1  0.112312  0  0.104504  0.101263  0  1.0288  0
H  H13  1  0.83952728  0.93468379  0.00579002  1  0.112206  0  0.104456  0.101151  0  1.028862  0
H  H14  1  0.33951774  0.43467358  0.49421257  1  0.111806  0  0.104485  0.101212  0  1.028986  0
H  H15  1  0.16047491  0.06531752  0.99420674  1  0.1121  0  0.104465  0.101172  0  1.028956  0
H  H16  1  0.57906160  0.88600845  0.02880169  1  0.129501  0  0.107242  0.115708  0  1.016751  0
H  H17  1  0.92093505  0.61400046  0.52879520  1  0.129422  0  0.107279  0.11575  0  1.016824  0
H  H18  1  0.42093961  0.11399720  0.97120415  1  0.12941  0  0.107268  0.115714  0  1.016804  0
H  H19  1  0.07904791  0.38600953  0.47120091  1  0.129611  0  0.107276  0.115739  0  1.016761  0
H  H20  1  0.52067088  0.99863985  0.85025405  1  0.119039  0  0.102969  0.130214  0  1.010307  0
H  H21  1  0.97933125  0.50136210  0.35024951  1  0.11898  0  0.102962  0.130191  0  1.010283  0
H  H22  1  0.47933724  0.00136579  0.14974725  1  0.119027  0  0.103003  0.130298  0  1.010298  0
H  H23  1  0.02067108  0.49864267  0.64974465  1  0.119046  0  0.102972  0.130274  0  1.010251  0
H  H24  1  0.95120845  0.81896133  0.76695010  1  0.142008  0  0.116862  0.09214  0  1.029306  0
H  H25  1  0.54880021  0.68103107  0.26695463  1  0.141861  0  0.116907  0.092106  0  1.029369  0
H  H26  1  0.04878770  0.18103303  0.23304601  1  0.141995  0  0.116903  0.092186  0  1.029295  0
H  H27  1  0.45120401  0.31896328  0.73304925  1  0.141924  0  0.116867  0.09213  0  1.029337  0
H  H28  1  0.22345553  0.86763580  0.72745625  1  0.133697  0  0.102138  0.111877  0  1.050397  0
H  H29  1  0.27655128  0.63235139  0.22746857  1  0.133661  0  0.102192  0.111921  0  1.050507  0
H  H30  1  0.77654286  0.13235682  0.27253402  1  0.133659  0  0.102148  0.111885  0  1.050503  0
H  H31  1  0.72344721  0.36764384  0.77253856  1  0.133572  0  0.102167  0.111931  0  1.050453  0
H  H32  1  0.42271545  0.71219684  0.74902139  1  0.118412  0  0.106904  0.109771  0  1.016096  0
H  H33  1  0.07729025  0.78779122  0.24902852  1  0.118344  0  0.106923  0.109768  0  1.01606  0
H  H34  1  0.57728168  0.28779318  0.25096954  1  0.118262  0  0.106927  0.109789  0  1.016068  0
H  H35  1  0.92271072  0.21220834  0.75096889  1  0.118393  0  0.106924  0.10973  0  1.01602  0
H  H36  1  0.33909003  0.52305675  0.81033312  1  0.096144  0  0.113331  0.134242  0  1.004022  0
H  H37  1  0.16091696  0.97693478  0.31033182  1  0.096326  0  0.113341  0.134261  0  1.003973  0
H  H38  1  0.66090012  0.47693153  0.18965975  1  0.096176  0  0.113355  0.134276  0  1.004072  0
H  H39  1  0.83909437  0.02306478  0.68966429  1  0.096253  0  0.11338  0.134308  0  1.00399  0
H  H40  1  0.04647361  0.26607769  0.94295463  1  0.119796  0  0.114425  0.136923  0  1.005566  0
H  H41  1  0.45352148  0.23391688  0.44295658  1  0.119794  0  0.114416  0.13694  0  1.005551  0
H  H42  1  0.95352275  0.73392188  0.05704731  1  0.119752  0  0.114409  0.136908  0  1.005583  0
H  H43  1  0.54648050  0.76607921  0.55703953  1  0.119731  0  0.114399  0.136896  0  1.00558  0
H  H44  1  0.81360285  0.18311514  0.01804018  1  0.09441  0  0.106944  0.104501  0  1.006984  0
H  H45  1  0.68639322  0.31689159  0.51803305  1  0.094375  0  0.106951  0.104464  0  1.006984  0
H  H46  1  0.18639746  0.81689658  0.98197408  1  0.094342  0  0.106945  0.104481  0  1.006994  0
H  H47  1  0.31360992  0.68310451  0.48195658  1  0.094231  0  0.10692  0.104441  0  1.006913  0
H  H48  1  0.57110069  0.29980659  0.02286909  1  0.10993  0  0.106083  0.122007  0  1.039918  0
H  H49  1  0.92889674  0.20020535  0.52286196  1  0.109973  0  0.106092  0.122005  0  1.039866  0
H  H50  1  0.42889267  0.70020426  0.97714647  1  0.110123  0  0.106074  0.122017  0  1.039824  0
H  H51  1  0.07111379  0.79980290  0.47713351  1  0.110032  0  0.106077  0.122032  0  1.039947  0
H  H52  1  0.57993141  0.49607867  0.95231238  1  0.063311  0  0.118416  0.084357  0  1.007919  0
H  H53  1  0.92008099  0.00393327  0.45230849  1  0.063449  0  0.118416  0.084329  0  1.007897  0
H  H54  1  0.42007465  0.50393306  0.04769864  1  0.063506  0  0.118449  0.084381  0  1.007925  0
H  H55  1  0.07992368  0.99607237  0.54768762  1  0.063342  0  0.118423  0.084344  0  1.007876  0
C  C56  1  0.64586842  0.57585465  0.67781335  1  1.539599  0  0.186145  0.585937  0  4.254614  0
C  C57  1  0.85414393  0.92414383  0.17781270  1  1.540481  0  0.18619  0.585957  0  4.25462  0
C  C58  1  0.35413132  0.42414318  0.32218989  1  1.539933  0  0.186068  0.585763  0  4.254765  0
C  C59  1  0.14586851  0.07585487  0.82218665  1  1.539696  0  0.186167  0.586011  0  4.254638  0
C  C60  1  0.53027679  0.52443210  0.61703564  1  -0.114512  0  -0.09298  -0.229803  0  3.894806  0
C  C61  1  0.96973037  0.97555163  0.11703111  1  -0.115366  0  -0.092878  -0.229672  0  3.894686  0
C  C62  1  0.46971779  0.47555184  0.38297472  1  -0.113944  0  -0.092837  -0.229574  0  3.894649  0
C  C63  1  0.03027964  0.02444360  0.88296824  1  -0.114033  0  -0.092867  -0.22968  0  3.894914  0
C  C64  1  0.55384752  0.52477680  0.53053986  1  -0.01405  0  -0.082088  -0.044635  0  4.030774  0
C  C65  1  0.94614941  0.97521039  0.03053467  1  -0.079289  0  -0.082018  -0.044468  0  4.030547  0
C  C66  1  0.44613325  0.47520714  0.46947051  1  -0.07904  0  -0.082017  -0.044517  0  4.030736  0
C  C67  1  0.05385721  0.02478657  0.96946403  1  -0.014008  0  -0.082056  -0.044592  0  4.03094  0
C  C68  1  0.53681890  0.94980735  0.98268373  1  -0.079342  0  -0.074117  -0.030127  0  3.976458  0
C  C69  1  0.96317549  0.55020242  0.48267920  1  -0.024058  0  -0.074088  -0.03016  0  3.976782  0
C  C70  1  0.46318598  0.05020350  0.01731821  1  -0.024267  0  -0.074069  -0.030009  0  3.976376  0
C  C71  1  0.03681459  0.44981278  0.51731238  1  -0.079571  0  -0.074091  -0.030027  0  3.976494  0
C  C72  1  0.55958076  0.93426268  0.89665068  1  -0.059766  0  -0.095007  -0.233123  0  3.870484  0
C  C73  1  0.94041680  0.56574015  0.39664679  1  -0.060233  0  -0.09506  -0.233095  0  3.870677  0
C  C74  1  0.44043803  0.06575078  0.10335191  1  -0.078667  0  -0.09513  -0.233298  0  3.870546  0
C  C75  1  0.05958110  0.43426897  0.60334543  1  -0.059674  0  -0.095062  -0.233285  0  3.870529  0
C  C76  1  0.64337441  0.83523709  0.86081270  1  1.483675  0  0.188408  0.59125  0  4.234828  0
C  C77  1  0.85662420  0.66476313  0.36080752  1  1.484115  0  0.188378  0.590973  0  4.23508  0
C  C78  1  0.35663836  0.16476942  0.13919378  1  1.502849  0  0.188413  0.591159  0  4.234954  0
C  C79  1  0.14337230  0.33523991  0.63918341  1  1.483772  0  0.188355  0.591249  0  4.234773  0
C  C80  1  0.04263699  0.75771254  0.77699093  1  0.391976  0  0.045358  0.10963  0  3.939373  0
C  C81  1  0.45736766  0.74227813  0.27699611  1  0.392174  0  0.045508  0.109895  0  3.939153  0
C  C82  1  0.95736046  0.24228529  0.22300583  1  0.39223  0  0.045303  0.109505  0  3.939504  0
C  C83  1  0.54263079  0.25771623  0.72300713  1  0.391973  0  0.045362  0.109604  0  3.939504  0
C  C84  1  0.19360377  0.78268665  0.75399352  1  -0.015431  0  -0.097646  -0.14925  0  3.986308  0
C  C85  1  0.30640081  0.71730228  0.25400130  1  -0.015637  0  -0.097625  -0.149103  0  3.986228  0
C  C86  1  0.80639932  0.21730857  0.24600583  1  -0.015201  0  -0.097572  -0.149021  0  3.986399  0
C  C87  1  0.69359545  0.28269468  0.74600194  1  -0.015402  0  -0.097574  -0.149093  0  3.986281  0
C  C88  1  0.30210266  0.69675375  0.76583798  1  0.001547  0  -0.067436  -0.003054  0  3.960991  0
C  C89  1  0.19790066  0.80323258  0.26584446  1  0.001811  0  -0.067563  -0.003252  0  3.960915  0
C  C90  1  0.69789314  0.30323193  0.23415036  1  0.014972  0  -0.067606  -0.003322  0  3.961172  0
C  C91  1  0.80209790  0.19676438  0.73415295  1  0.001653  0  -0.067561  -0.003204  0  3.960952  0
C  C92  1  0.25597969  0.59073857  0.80068892  1  0.008267  0  -0.087177  -0.223468  0  3.950833  0
C  C93  1  0.24402730  0.90925296  0.30068762  1  0.008202  0  -0.087239  -0.223527  0  3.950767  0
C  C94  1  0.74400806  0.40924710  0.19929682  1  -0.005483  0  -0.087178  -0.22351  0  3.950979  0
C  C95  1  0.75598054  0.09074574  0.69930266  1  0.008078  0  -0.087212  -0.223475  0  3.950895  0
C  C96  1  0.10084634  0.57203252  0.82490214  1  0.884439  0  0.231527  0.380232  0  4.031673  0
C  C97  1  0.39915960  0.92796162  0.32490019  1  0.884641  0  0.23158  0.380292  0  4.031833  0
C  C98  1  0.89914406  0.42796184  0.17509203  1  0.884549  0  0.231618  0.380391  0  4.031667  0
C  C99  1  0.60084827  0.07203794  0.67509268  1  0.884601  0  0.231568  0.380179  0  4.031986  0
C  C100  1  0.93327121  0.42421698  0.90651977  1  0.937889  0  0.230905  0.383764  0  4.037721  0
C  C101  1  0.56673372  0.07578107  0.40651847  1  0.937895  0  0.230926  0.383794  0  4.037747  0
C  C102  1  0.06672627  0.57578172  0.09348477  1  0.937839  0  0.230985  0.383933  0  4.037611  0
C  C103  1  0.43327294  0.92421677  0.59347829  1  0.937979  0  0.230896  0.383705  0  4.037727  0
C  C104  1  0.94006490  0.31385697  0.94604537  1  -0.018734  0  -0.088055  -0.226577  0  3.910254  0
C  C105  1  0.55993312  0.18614107  0.44604407  1  -0.018658  0  -0.08807  -0.22661  0  3.910405  0
C  C106  1  0.05993268  0.68614433  0.05396176  1  -0.018085  0  -0.088047  -0.226641  0  3.910466  0
C  C107  1  0.44007245  0.81385849  0.55394297  1  -0.018717  0  -0.088023  -0.226499  0  3.910101  0
C  C108  1  0.81045618  0.26850538  0.98773428  1  -0.05006  0  -0.06387  0.00504  0  3.955909  0
C  C109  1  0.68954338  0.23150222  0.48772651  1  -0.050153  0  -0.063866  0.005151  0  3.955989  0
C  C110  1  0.18953826  0.73150374  0.01227544  1  -0.05074  0  -0.063877  0.005091  0  3.955967  0
C  C111  1  0.31046227  0.76849908  0.51225988  1  -0.050127  0  -0.063853  0.005166  0  3.95583  0
C  C112  1  0.67590984  0.33295983  0.99137848  1  0.018626  0  -0.094723  -0.15706  0  3.984009  0
C  C113  1  0.82408637  0.16705037  0.49137330  1  0.018823  0  -0.094717  -0.157154  0  3.984069  0
C  C114  1  0.32408115  0.66704929  0.00863253  1  0.018812  0  -0.094643  -0.156995  0  3.983792  0
C  C115  1  0.17591694  0.83295006  0.50862670  1  0.018786  0  -0.094686  -0.157201  0  3.984159  0
C  C116  1  0.68013089  0.44138707  0.95304342  1  0.459889  0  0.042921  0.102689  0  3.966537  0
C  C117  1  0.81987442  0.05862053  0.45304083  1  0.459587  0  0.042915  0.102849  0  3.966318  0
C  C118  1  0.31986917  0.55861858  0.04696630  1  0.459728  0  0.042805  0.102559  0  3.966403  0
C  C119  1  0.18012780  0.94138164  0.54696111  1  0.45976  0  0.042921  0.102838  0  3.966308  0
N  N120  1  0.99628761  0.65474587  0.81220933  1  -1.256187  0  -0.343804  -0.329833  0  3.561337  0
N  N121  1  0.50371878  0.84524740  0.31220998  1  -1.256311  0  -0.343993  -0.330196  0  3.561632  0
N  N122  1  0.00370868  0.34525196  0.18778937  1  -1.256346  0  -0.343874  -0.329934  0  3.561532  0
N  N123  1  0.49628665  0.15474869  0.68779132  1  -1.256182  0  -0.343811  -0.329804  0  3.561418  0
N  N124  1  0.06098527  0.46528713  0.86143811  1  -1.242703  0  -0.392364  -0.390666  0  3.562221  0
N  N125  1  0.43902246  0.03470658  0.36143616  1  -1.242927  0  -0.392307  -0.39067  0  3.562424  0
N  N126  1  0.93901099  0.53470983  0.13856189  1  -1.243296  0  -0.392388  -0.390792  0  3.562326  0
N  N127  1  0.56098409  0.96528865  0.63856189  1  -1.24271  0  -0.392369  -0.390647  0  3.562412  0
N  N128  1  0.80503836  0.48701477  0.91151588  1  -1.257809  0  -0.345744  -0.338905  0  3.528405  0
N  N129  1  0.69496898  0.01298588  0.41151329  1  -1.257899  0  -0.345802  -0.339114  0  3.528297  0
N  N130  1  0.19496031  0.51298480  0.08848931  1  -1.257979  0  -0.345786  -0.338945  0  3.528378  0
N  N131  1  0.30503656  0.98701282  0.58848607  1  -1.257782  0  -0.345765  -0.338963  0  3.528428  0
O  O132  1  0.61338798  0.55839804  0.75980687  1  -1.16023  0  -0.339533  -0.565986  0  2.312911  0
O  O133  1  0.88662225  0.94160479  0.25980493  1  -1.160125  0  -0.339551  -0.565984  0  2.312969  0
O  O134  1  0.38660971  0.44160587  0.24019702  1  -1.16043  0  -0.339558  -0.565968  0  2.312921  0
O  O135  1  0.11338116  0.05839825  0.74019507  1  -1.160223  0  -0.339542  -0.56599  0  2.312953  0
O  O136  1  0.76305888  0.63062440  0.65137524  1  -1.174536  0  -0.325535  -0.550573  0  2.116929  0
O  O137  1  0.73694451  0.86938016  0.15137524  1  -1.174395  0  -0.325557  -0.550584  0  2.116932  0
O  O138  1  0.23693200  0.36938212  0.34862735  1  -1.174553  0  -0.325457  -0.550444  0  2.117049  0
O  O139  1  0.26306797  0.13061940  0.84862152  1  -1.174584  0  -0.325531  -0.550582  0  2.116948  0
O  O140  1  0.66909578  0.74772046  0.91170123  1  -1.17141  0  -0.337  -0.551622  0  2.245217  0
O  O141  1  0.83088900  0.75227976  0.41169864  1  -1.171425  0  -0.337041  -0.551608  0  2.245272  0
O  O142  1  0.33091244  0.25228779  0.08830525  1  -1.171432  0  -0.337022  -0.551692  0  2.245388  0
O  O143  1  0.16909466  0.24771894  0.58829747  1  -1.171426  0  -0.33697  -0.55164  0  2.245168  0
O  O144  1  0.68949796  0.83768388  0.78305055  1  -1.187369  0  -0.322742  -0.570827  0  2.157485  0
O  O145  1  0.81051687  0.66231894  0.28304407  1  -1.187513  0  -0.322677  -0.570625  0  2.157631  0
O  O146  1  0.31050419  0.16231655  0.21695399  1  -1.187596  0  -0.322691  -0.570686  0  2.157487  0
O  O147  1  0.18948786  0.33768844  0.71694750  1  -1.187466  0  -0.32272  -0.570788  0  2.157396  0
