# generated using pymatgen
data_AgH9C6SNClO5
_symmetry_space_group_name_H-M   'P 1'
_cell_length_a   6.95181935
_cell_length_b   10.23687664
_cell_length_c   15.63629189
_cell_angle_alpha   89.99997402
_cell_angle_beta   89.99992917
_cell_angle_gamma   109.85655498
_symmetry_Int_Tables_number   1
_chemical_formula_structural   AgH9C6SNClO5
_chemical_formula_sum   'Ag4 H36 C24 S4 N4 Cl4 O20'
_cell_volume   1046.59760291
_cell_formula_units_Z   4
loop_
 _symmetry_equiv_pos_site_id
 _symmetry_equiv_pos_as_xyz
  1  'x, y, z'
loop_
 _atom_site_type_symbol
 _atom_site_label
 _atom_site_symmetry_multiplicity
 _atom_site_fract_x
 _atom_site_fract_y
 _atom_site_fract_z
 _atom_site_occupancy
 _atom_site_hle17_bader_spin_density
 _atom_site_hle17_ddec_charge
 _atom_site_hle17_ddec_spin_density
 _atom_site_hle17_ddec_sum_bond_order
 _atom_site_hle17_magmom
 _atom_site_hse06_10hf_bader_spin_density
 _atom_site_hse06_10hf_ddec_charge
 _atom_site_hse06_10hf_ddec_spin_density
 _atom_site_hse06_10hf_ddec_sum_bond_order
 _atom_site_hse06_10hf_magmom
 _atom_site_hse06_bader_spin_density
 _atom_site_hse06_ddec_charge
 _atom_site_hse06_ddec_spin_density
 _atom_site_hse06_ddec_sum_bond_order
 _atom_site_hse06_magmom
 _atom_site_pbe_bader_spin_density
 _atom_site_pbe_cm5_charge
 _atom_site_pbe_ddec_charge
 _atom_site_pbe_ddec_spin_density
 _atom_site_pbe_ddec_sum_bond_order
 _atom_site_pbe_magmom
Ag  Ag0  1  0.01830950  0.62369923  0.45947393  1  0  0.427215  0  1.600747  0  0  0.305947  0  2.061433  0  0  0.324542  0  2.021567  0  0  0.421736  0.293179  0  2.088761  0
Ag  Ag1  1  0.39443129  0.37609413  0.54043487  1  0  0.426827  0  1.600137  0  0  0.305681  0  2.060101  0  0  0.324258  0  2.020349  0  0  0.421383  0.292763  0  2.087677  0
Ag  Ag2  1  0.89443183  0.37609341  0.95956416  1  0  0.426827  0  1.600122  0  0  0.30569  0  2.060076  0  0  0.324266  0  2.020323  0  0  0.421387  0.292772  0  2.087652  0
Ag  Ag3  1  0.51831205  0.62370018  0.04052600  1  0  0.427226  0  1.600756  0  0  0.30596  0  2.061446  0  0  0.324557  0  2.02158  0  0  0.421746  0.293192  0  2.088772  0
H  H4  1  0.79466725  0.89760354  0.34034505  1  0  0.173433  0  0.942878  0  0  0.181276  0  0.998615  0  0  0.185119  0  0.997348  0  0  0.121273  0.178469  0  0.999774  0
H  H5  1  0.89671633  0.10249289  0.65959986  1  0  0.173502  0  0.943256  0  0  0.181797  0  0.998349  0  0  0.185621  0  0.997121  0  0  0.121296  0.178981  0  0.99952  0
H  H6  1  0.39671708  0.10249213  0.84039989  1  0  0.173531  0  0.943175  0  0  0.181811  0  0.998296  0  0  0.185635  0  0.997068  0  0  0.121307  0.178995  0  0.999465  0
H  H7  1  0.29466865  0.89760304  0.15965529  1  0  0.173403  0  0.942879  0  0  0.181246  0  0.998629  0  0  0.185091  0  0.997362  0  0  0.121255  0.178439  0  0.999786  0
H  H8  1  0.33410002  0.54730849  0.37709179  1  0  0.129311  0  0.964139  0  0  0.137421  0  1.03697  0  0  0.140597  0  1.033839  0  0  0.103806  0.135083  0  1.039342  0
H  H9  1  0.78677641  0.45285047  0.62302211  1  0  0.129936  0  0.962432  0  0  0.137532  0  1.035797  0  0  0.140705  0  1.032646  0  0  0.103989  0.135211  0  1.038163  0
H  H10  1  0.28677560  0.45284964  0.87697824  1  0  0.129985  0  0.962439  0  0  0.13761  0  1.035765  0  0  0.140782  0  1.032613  0  0  0.104016  0.135286  0  1.038132  0
H  H11  1  0.83410175  0.54730828  0.12290799  1  0  0.129264  0  0.964126  0  0  0.13737  0  1.036971  0  0  0.140547  0  1.033839  0  0  0.103789  0.135031  0  1.039343  0
H  H12  1  0.51416002  0.67678802  0.44137039  1  0  0.132319  0  0.956701  0  0  0.14388  0  1.022397  0  0  0.145688  0  1.021305  0  0  0.107994  0.14243  0  1.023493  0
H  H13  1  0.83703124  0.32325505  0.55873769  1  0  0.133116  0  0.956346  0  0  0.143933  0  1.02275  0  0  0.145775  0  1.02159  0  0  0.10835  0.142525  0  1.023694  0
H  H14  1  0.33703359  0.32325516  0.94126203  1  0  0.133129  0  0.956342  0  0  0.143942  0  1.022759  0  0  0.145783  0  1.021601  0  0  0.108359  0.142534  0  1.023703  0
H  H15  1  0.01416178  0.67678768  0.05862952  1  0  0.132314  0  0.956709  0  0  0.143884  0  1.022373  0  0  0.145691  0  1.02128  0  0  0.107998  0.142434  0  1.02347  0
H  H16  1  0.98746828  0.01145199  0.17838601  1  0  0.138936  0  0.9387  0  0  0.158257  0  0.997181  0  0  0.159774  0  0.997352  0  0  0.101175  0.157109  0  0.997258  0
H  H17  1  0.97593339  0.98851805  0.82147632  1  0  0.138767  0  0.937821  0  0  0.158214  0  0.996193  0  0  0.159724  0  0.996358  0  0  0.101335  0.157096  0  0.996101  0
H  H18  1  0.47593379  0.98851857  0.67852313  1  0  0.138801  0  0.937808  0  0  0.158251  0  0.996169  0  0  0.159775  0  0.99632  0  0  0.10136  0.157131  0  0.996077  0
H  H19  1  0.48746570  0.01145021  0.32161384  1  0  0.138953  0  0.938652  0  0  0.158275  0  0.997138  0  0  0.159792  0  0.997308  0  0  0.101168  0.157127  0  0.997216  0
H  H20  1  0.86330306  0.92226090  0.08471089  1  0  0.136626  0  0.925217  0  0  0.157772  0  0.982184  0  0  0.160229  0  0.980402  0  0  0.102049  0.156013  0  0.983479  0
H  H21  1  0.94109646  0.07755834  0.91521480  1  0  0.137255  0  0.923642  0  0  0.158246  0  0.980863  0  0  0.160671  0  0.979136  0  0  0.102089  0.156347  0  0.982271  0
H  H22  1  0.44109720  0.07755900  0.58478493  1  0  0.137265  0  0.923646  0  0  0.158275  0  0.98084  0  0  0.160703  0  0.979112  0  0  0.102092  0.156375  0  0.982251  0
H  H23  1  0.36330211  0.92226002  0.41528876  1  0  0.136609  0  0.925227  0  0  0.157756  0  0.982198  0  0  0.160213  0  0.980417  0  0  0.102045  0.155997  0  0.983494  0
H  H24  1  0.75034621  0.02453121  0.14505592  1  0  0.145478  0  0.937726  0  0  0.163436  0  0.998748  0  0  0.165421  0  0.998267  0  0  0.102419  0.162026  0  0.999063  0
H  H25  1  0.72575863  0.97530378  0.85488457  1  0  0.146163  0  0.938299  0  0  0.163543  0  0.99992  0  0  0.165538  0  0.999415  0  0  0.102692  0.162185  0  0.99998  0
H  H26  1  0.22575772  0.97530434  0.64511502  1  0  0.14616  0  0.938295  0  0  0.163534  0  0.999923  0  0  0.165529  0  0.999421  0  0  0.102689  0.162176  0  0.999983  0
H  H27  1  0.25034443  0.02452834  0.35494342  1  0  0.14549  0  0.937727  0  0  0.163451  0  0.998748  0  0  0.165436  0  0.998269  0  0  0.102441  0.162041  0  0.999066  0
H  H28  1  0.61743744  0.27804045  0.34952192  1  0  0.147497  0  0.958976  0  0  0.167069  0  1.015998  0  0  0.168299  0  1.016317  0  0  0.102899  0.165993  0  1.016093  0
H  H29  1  0.33956774  0.72189894  0.65041360  1  0  0.147047  0  0.960691  0  0  0.167148  0  1.016922  0  0  0.168365  0  1.017263  0  0  0.10294  0.166192  0  1.016711  0
H  H30  1  0.83956775  0.72189942  0.84958664  1  0  0.147059  0  0.9607  0  0  0.167171  0  1.01691  0  0  0.168389  0  1.017251  0  0  0.102953  0.166216  0  1.016699  0
H  H31  1  0.11743311  0.27803997  0.15047870  1  0  0.147527  0  0.958983  0  0  0.167073  0  1.01603  0  0  0.168302  0  1.016351  0  0  0.102905  0.165998  0  1.016124  0
H  H32  1  0.63961387  0.41402668  0.27376864  1  0  0.140719  0  0.951419  0  0  0.153973  0  1.018411  0  0  0.156414  0  1.017322  0  0  0.096609  0.15224  0  1.019189  0
H  H33  1  0.22570583  0.58603615  0.72621807  1  0  0.140913  0  0.951028  0  0  0.153985  0  1.01812  0  0  0.156412  0  1.017065  0  0  0.096849  0.15234  0  1.018704  0
H  H34  1  0.72570611  0.58603675  0.77378164  1  0  0.140913  0  0.951039  0  0  0.153977  0  1.018139  0  0  0.156405  0  1.017083  0  0  0.096846  0.152332  0  1.018722  0
H  H35  1  0.13961019  0.41402505  0.22623193  1  0  0.140735  0  0.951416  0  0  0.153986  0  1.018407  0  0  0.156427  0  1.017319  0  0  0.09661  0.152252  0  1.019186  0
H  H36  1  0.39478455  0.31907804  0.32030469  1  0  0.13873  0  0.941451  0  0  0.158944  0  0.999074  0  0  0.160043  0  0.999568  0  0  0.100121  0.158006  0  0.998961  0
H  H37  1  0.07592806  0.68104312  0.67966294  1  0  0.138878  0  0.942539  0  0  0.158705  0  1.000615  0  0  0.15982  0  1.001092  0  0  0.100227  0.157796  0  1.00036  0
H  H38  1  0.57592673  0.68104365  0.82033682  1  0  0.138876  0  0.942544  0  0  0.158702  0  1.00062  0  0  0.159816  0  1.001097  0  0  0.100229  0.157792  0  1.000366  0
H  H39  1  0.89478177  0.31907774  0.17969448  1  0  0.138712  0  0.941474  0  0  0.158924  0  0.999098  0  0  0.160025  0  0.999591  0  0  0.100102  0.15799  0  0.99898  0
C  C40  1  0.58520875  0.68724586  0.30930773  1  0  0.297513  0  3.69381  0  0  0.276864  0  3.973631  0  0  0.29184  0  3.987007  0  0  0.086711  0.267104  0  3.964371  0
C  C41  1  0.89789656  0.31283248  0.69076067  1  0  0.299384  0  3.69101  0  0  0.277811  0  3.971881  0  0  0.292741  0  3.985227  0  0  0.086964  0.268142  0  3.962465  0
C  C42  1  0.39789391  0.31282761  0.80923774  1  0  0.299506  0  3.691135  0  0  0.277969  0  3.971969  0  0  0.292898  0  3.985316  0  0  0.087025  0.268299  0  3.962553  0
C  C43  1  0.08520756  0.68724324  0.19069214  1  0  0.297487  0  3.693816  0  0  0.276798  0  3.973692  0  0  0.291774  0  3.987066  0  0  0.086704  0.26704  0  3.964431  0
C  C44  1  0.71612828  0.81880032  0.29402783  1  0  -0.300295  0  3.635966  0  0  -0.327072  0  3.892727  0  0  -0.338994  0  3.910298  0  0  -0.103926  -0.319321  0  3.881052  0
C  C45  1  0.89707697  0.18120936  0.70597593  1  0  -0.301795  0  3.634303  0  0  -0.328459  0  3.891278  0  0  -0.340453  0  3.908832  0  0  -0.103899  -0.320794  0  3.87961  0
C  C46  1  0.39707330  0.18121385  0.79402188  1  0  -0.301881  0  3.634584  0  0  -0.328541  0  3.89157  0  0  -0.340537  0  3.909125  0  0  -0.103942  -0.320879  0  3.87991  0
C  C47  1  0.21612755  0.81879871  0.20597257  1  0  -0.300191  0  3.635845  0  0  -0.326982  0  3.892623  0  0  -0.338907  0  3.910194  0  0  -0.103922  -0.319231  0  3.880945  0
C  C48  1  0.72642560  0.83203037  0.20323264  1  0  0.310419  0  3.739476  0  0  0.303526  0  4.009556  0  0  0.316696  0  4.025506  0  0  0.121827  0.294903  0  3.998453  0
C  C49  1  0.89430548  0.16791838  0.79676536  1  0  0.3106  0  3.739963  0  0  0.303064  0  4.010385  0  0  0.316361  0  4.026136  0  0  0.121131  0.294404  0  3.999382  0
C  C50  1  0.39430580  0.16791886  0.70323437  1  0  0.310528  0  3.740043  0  0  0.302976  0  4.010485  0  0  0.316273  0  4.02624  0  0  0.121077  0.294315  0  3.999482  0
C  C51  1  0.22642403  0.83202759  0.29676775  1  0  0.310205  0  3.739632  0  0  0.303374  0  4.009655  0  0  0.316543  0  4.025607  0  0  0.121782  0.294751  0  3.998553  0
C  C52  1  0.49691521  0.60663599  0.38665347  1  0  -0.254346  0  3.669058  0  0  -0.294885  0  3.919174  0  0  -0.296962  0  3.927398  0  0  -0.151705  -0.293501  0  3.913932  0
C  C53  1  0.89010129  0.39343888  0.61343222  1  0  -0.255931  0  3.668055  0  0  -0.294757  0  3.917263  0  0  -0.296853  0  3.925574  0  0  -0.151952  -0.29336  0  3.911732  0
C  C54  1  0.39009900  0.39343804  0.88656681  1  0  -0.256017  0  3.668039  0  0  -0.294868  0  3.917235  0  0  -0.296957  0  3.925539  0  0  -0.152015  -0.293464  0  3.911696  0
C  C55  1  0.99691606  0.60663683  0.11334748  1  0  -0.25425  0  3.669  0  0  -0.294776  0  3.919151  0  0  -0.296852  0  3.927375  0  0  -0.151677  -0.293395  0  3.913909  0
C  C56  1  0.83914400  0.95401447  0.14968090  1  0  -0.366796  0  3.665102  0  0  -0.443897  0  3.897348  0  0  -0.448486  0  3.904334  0  0  -0.231216  -0.440356  0  3.89238  0
C  C57  1  0.88506418  0.04590383  0.85024801  1  0  -0.368009  0  3.664861  0  0  -0.444271  0  3.897356  0  0  -0.44888  0  3.904265  0  0  -0.231781  -0.440748  0  3.892244  0
C  C58  1  0.38506469  0.04590438  0.64975112  1  0  -0.368033  0  3.664872  0  0  -0.444301  0  3.89734  0  0  -0.448924  0  3.90424  0  0  -0.231791  -0.440783  0  3.892246  0
C  C59  1  0.33914328  0.95401369  0.35031940  1  0  -0.366756  0  3.665115  0  0  -0.443875  0  3.897355  0  0  -0.44846  0  3.904333  0  0  -0.231224  -0.440334  0  3.89239  0
C  C60  1  0.56015297  0.36126172  0.33101242  1  0  -0.320097  0  3.560659  0  0  -0.395633  0  3.806984  0  0  -0.396893  0  3.81442  0  0  -0.229868  -0.394591  0  3.80223  0
C  C61  1  0.19900119  0.63875978  0.66896152  1  0  -0.320625  0  3.563675  0  0  -0.395669  0  3.809257  0  0  -0.396948  0  3.816678  0  0  -0.23022  -0.394661  0  3.804157  0
C  C62  1  0.69900126  0.63876029  0.83103882  1  0  -0.32067  0  3.563774  0  0  -0.395711  0  3.809343  0  0  -0.39699  0  3.816765  0  0  -0.230249  -0.394705  0  3.804243  0
C  C63  1  0.06015002  0.36126121  0.16898693  1  0  -0.32012  0  3.560654  0  0  -0.395643  0  3.807002  0  0  -0.396905  0  3.814439  0  0  -0.229854  -0.394604  0  3.802243  0
S  S64  1  0.61576714  0.48015739  0.42029890  1  0  0.101803  0  2.862948  0  0  0.149879  0  3.335713  0  0  0.145426  0  3.320857  0  0  -0.005273  0.15286  0  3.346017  0
S  S65  1  0.13554257  0.51979415  0.57971598  1  0  0.101986  0  2.862234  0  0  0.149653  0  3.334171  0  0  0.145215  0  3.319391  0  0  -0.00527  0.152563  0  3.344346  0
S  S66  1  0.63554233  0.51979453  0.92028380  1  0  0.10202  0  2.86231  0  0  0.149682  0  3.334265  0  0  0.145241  0  3.319486  0  0  -0.005246  0.152594  0  3.344433  0
S  S67  1  0.11576882  0.48015702  0.07970038  1  0  0.101787  0  2.862895  0  0  0.149866  0  3.33564  0  0  0.145413  0  3.320784  0  0  -0.005275  0.152849  0  3.345941  0
N  N68  1  0.60996776  0.71437914  0.16745183  1  0  -0.227096  0  3.001005  0  0  -0.184124  0  3.316843  0  0  -0.195705  0  3.324239  0  0  -0.264528  -0.176528  0  3.311851  0
N  N69  1  0.89570396  0.28557771  0.83260504  1  0  -0.227485  0  3.001125  0  0  -0.18362  0  3.31637  0  0  -0.195287  0  3.323686  0  0  -0.263794  -0.175932  0  3.311402  0
N  N70  1  0.39570349  0.28557928  0.66739466  1  0  -0.227427  0  3.001165  0  0  -0.183544  0  3.316412  0  0  -0.19521  0  3.323729  0  0  -0.263748  -0.175856  0  3.311445  0
N  N71  1  0.10996946  0.71437735  0.33254802  1  0  -0.226984  0  3.001018  0  0  -0.184052  0  3.316858  0  0  -0.195636  0  3.324254  0  0  -0.264495  -0.176457  0  3.311868  0
Cl  Cl72  1  0.76542477  0.79360633  0.58450014  1  0  1.382543  0  6.185847  0  0  1.320204  0  6.748541  0  0  1.371797  0  6.726833  0  0  0.723185  1.284772  0  6.76197  0
Cl  Cl73  1  0.97144130  0.20643720  0.41538975  1  0  1.380839  0  6.189319  0  0  1.318719  0  6.751719  0  0  1.3703  0  6.730103  0  0  0.722773  1.283247  0  6.765252  0
Cl  Cl74  1  0.47144204  0.20643786  0.08460941  1  0  1.380821  0  6.189457  0  0  1.318691  0  6.751875  0  0  1.370273  0  6.730257  0  0  0.722781  1.283216  0  6.765403  0
Cl  Cl75  1  0.26542578  0.79360648  0.91550011  1  0  1.382493  0  6.185879  0  0  1.320181  0  6.748546  0  0  1.371779  0  6.726837  0  0  0.723177  1.284752  0  6.761967  0
O  O76  1  0.51821671  0.62151380  0.23350014  1  0  -0.143091  0  2.31813  0  0  -0.072336  0  2.546079  0  0  -0.089106  0  2.555293  0  0  -0.041776  -0.061263  0  2.539669  0
O  O77  1  0.89685830  0.37851149  0.76658938  1  0  -0.142795  0  2.318271  0  0  -0.072397  0  2.546801  0  0  -0.088994  0  2.555877  0  0  -0.041854  -0.061394  0  2.540221  0
O  O78  1  0.39685851  0.37851192  0.73341029  1  0  -0.142818  0  2.318254  0  0  -0.072449  0  2.54679  0  0  -0.089046  0  2.555867  0  0  -0.041869  -0.061446  0  2.540212  0
O  O79  1  0.01822008  0.62151211  0.26649979  1  0  -0.143091  0  2.318138  0  0  -0.072322  0  2.546123  0  0  -0.089088  0  2.555331  0  0  -0.041766  -0.06125  0  2.539713  0
O  O80  1  0.92300685  0.82550666  0.51746758  1  0  -0.541723  0  1.88075  0  0  -0.505031  0  2.140538  0  0  -0.521226  0  2.124602  0  0  -0.324786  -0.493544  0  2.150694  0
O  O81  1  0.09706411  0.17455409  0.48244937  1  0  -0.540519  0  1.881322  0  0  -0.504177  0  2.141317  0  0  -0.52044  0  2.12556  0  0  -0.32445  -0.492668  0  2.151468  0
O  O82  1  0.59706438  0.17455611  0.01755065  1  0  -0.540537  0  1.881401  0  0  -0.504189  0  2.141373  0  0  -0.520453  0  2.125615  0  0  -0.324492  -0.492699  0  2.151571  0
O  O83  1  0.42300670  0.82550776  0.98253258  1  0  -0.541683  0  1.880718  0  0  -0.505028  0  2.140531  0  0  -0.521228  0  2.124596  0  0  -0.324786  -0.493539  0  2.150684  0
O  O84  1  0.85055067  0.86963993  0.66226919  1  0  -0.528364  0  1.843577  0  0  -0.492167  0  2.070643  0  0  -0.509145  0  2.059776  0  0  -0.301623  -0.480311  0  2.07756  0
O  O85  1  0.98081582  0.13048697  0.33761492  1  0  -0.528157  0  1.844358  0  0  -0.491791  0  2.071231  0  0  -0.508735  0  2.060337  0  0  -0.301804  -0.479948  0  2.078263  0
O  O86  1  0.48081772  0.13048751  0.16238490  1  0  -0.528171  0  1.844339  0  0  -0.491777  0  2.071185  0  0  -0.508724  0  2.060295  0  0  -0.301806  -0.479932  0  2.078219  0
O  O87  1  0.35055052  0.86964020  0.83773100  1  0  -0.528354  0  1.843605  0  0  -0.49216  0  2.070663  0  0  -0.50914  0  2.059794  0  0  -0.301622  -0.480304  0  2.07758  0
O  O88  1  0.69513741  0.64350558  0.60270143  1  0  -0.585195  0  1.8895  0  0  -0.561037  0  2.164309  0  0  -0.576581  0  2.148906  0  0  -0.330316  -0.550129  0  2.174532  0
O  O89  1  0.05112210  0.35655582  0.39724053  1  0  -0.584785  0  1.890262  0  0  -0.560615  0  2.164525  0  0  -0.576149  0  2.149142  0  0  -0.330111  -0.549502  0  2.174527  0
O  O90  1  0.55112350  0.35655771  0.10275945  1  0  -0.584741  0  1.89036  0  0  -0.560571  0  2.164622  0  0  -0.576108  0  2.149241  0  0  -0.330057  -0.549457  0  2.174624  0
O  O91  1  0.19514044  0.64350680  0.89729955  1  0  -0.585174  0  1.889504  0  0  -0.561018  0  2.164302  0  0  -0.576562  0  2.148896  0  0  -0.33029  -0.550111  0  2.174523  0
O  O92  1  0.59266724  0.83153258  0.55425900  1  0  -0.535216  0  1.836937  0  0  -0.502429  0  2.070213  0  0  -0.518913  0  2.057868  0  0  -0.306859  -0.490779  0  2.078168  0
O  O93  1  0.76068431  0.16835169  0.44557216  1  0  -0.535461  0  1.838552  0  0  -0.502132  0  2.071268  0  0  -0.518663  0  2.058957  0  0  -0.306807  -0.490654  0  2.079456  0
O  O94  1  0.26068464  0.16835135  0.05442841  1  0  -0.535477  0  1.838587  0  0  -0.502153  0  2.071309  0  0  -0.51868  0  2.058997  0  0  -0.306835  -0.490673  0  2.079497  0
O  O95  1  0.09266722  0.83153373  0.94574134  1  0  -0.535225  0  1.836904  0  0  -0.502448  0  2.070162  0  0  -0.51893  0  2.057815  0  0  -0.306885  -0.490805  0  2.07813  0
