# generated using pymatgen
data_Al2H7C28N6O22F
_symmetry_space_group_name_H-M   'P 1'
_cell_length_a   6.68099866
_cell_length_b   19.39963262
_cell_length_c   21.93855772
_cell_angle_alpha   99.28468159
_cell_angle_beta   89.73901363
_cell_angle_gamma   89.14929165
_symmetry_Int_Tables_number   1
_chemical_formula_structural   Al2H7C28N6O22F
_chemical_formula_sum   'Al4 H14 C56 N12 O44 F2'
_cell_volume   2805.80171597
_cell_formula_units_Z   2
loop_
 _symmetry_equiv_pos_site_id
 _symmetry_equiv_pos_as_xyz
  1  'x, y, z'
loop_
 _atom_site_type_symbol
 _atom_site_label
 _atom_site_symmetry_multiplicity
 _atom_site_fract_x
 _atom_site_fract_y
 _atom_site_fract_z
 _atom_site_occupancy
 _atom_site_pbe_bader_charge
 _atom_site_pbe_bader_spin_density
 _atom_site_pbe_cm5_charge
 _atom_site_pbe_ddec_charge
 _atom_site_pbe_ddec_spin_density
 _atom_site_pbe_ddec_sum_bond_order
 _atom_site_pbe_magmom
Al  Al0  1  0.88244099  0.49954174  0.50023958  1  2.501744  0  0.401506  1.641007  0  2.569802  0
Al  Al1  1  0.38245886  0.49940488  0.49899761  1  2.50033  0  0.402788  1.641341  0  2.565834  0
Al  Al2  1  0.33448525  0.99973826  0.99924185  1  2.501776  0  0.400202  1.639824  0  2.567048  0
Al  Al3  1  0.83444864  0.99981831  0.00031705  1  2.500409  0  0.398517  1.643082  0  2.572812  0
H  H4  1  0.80591266  0.82611571  0.23882142  1  0.150607  0  0.126653  0.142802  0  1.003081  0
H  H5  1  0.31207804  0.17734691  0.76230020  1  0.17336  0  0.126054  0.140603  0  1.002996  0
H  H6  1  0.40834306  0.68156421  0.26765113  1  0.179685  0  0.125013  0.140589  0  1.00711  0
H  H7  1  0.90891441  0.31974062  0.73521769  1  0.177885  0  0.12465  0.13873  0  1.007661  0
H  H8  1  0.09746182  0.14550284  0.39437200  1  0.157439  0  0.129169  0.146514  0  0.987852  0
H  H9  1  0.63786940  0.85414245  0.60564490  1  0.159763  0  0.12979  0.150411  0  0.981894  0
H  H10  1  0.01616336  0.35959824  0.21917479  1  0.101655  0  0.119255  0.121139  0  1.007407  0
H  H11  1  0.70588028  0.64108318  0.78222304  1  0.145275  0  0.1186  0.119996  0  1.009117  0
H  H12  1  0.96280436  0.35003970  0.10783028  1  0.156485  0  0.129426  0.141349  0  0.970728  0
H  H13  1  0.72985621  0.65104645  0.89462196  1  0.1566  0  0.128603  0.140052  0  0.97198  0
H  H14  1  0.63673233  0.51246749  0.42380156  1  0.635036  0  0.361169  0.445726  0  0.83242  0
H  H15  1  0.13271684  0.48736198  0.57578146  1  0.630979  0  0.36166  0.445962  0  0.830827  0
H  H16  1  0.58162960  0.98229249  0.07378410  1  0.630421  0  0.357722  0.438762  0  0.838274  0
H  H17  1  0.08370954  0.01718772  0.92571305  1  0.635278  0  0.358138  0.439283  0  0.836929  0
C  C18  1  0.62950855  0.60944626  0.56821438  1  1.682638  0  0.261731  0.630986  0  4.20578  0
C  C19  1  0.13368675  0.38961369  0.43090526  1  1.662451  0  0.261647  0.631106  0  4.205447  0
C  C20  1  0.63032443  0.42478405  0.57683338  1  1.666439  0  0.283209  0.719877  0  4.145076  0
C  C21  1  0.13296483  0.57462469  0.42270472  1  1.654596  0  0.284912  0.721397  0  4.143656  0
C  C22  1  0.93849655  0.79482958  0.24505716  1  0.07087  0  -0.050582  -0.127695  0  3.873405  0
C  C23  1  0.44351370  0.20813000  0.75642838  1  0.092676  0  -0.050479  -0.128402  0  3.881058  0
C  C24  1  0.11120720  0.80110495  0.20957517  1  0.185187  0  0.030531  0.114829  0  4.048241  0
C  C25  1  0.61422024  0.20117862  0.79239354  1  0.117385  0  0.030379  0.116014  0  4.04709  0
C  C26  1  0.27889449  0.75918242  0.21960068  1  0.176925  0  0.100367  0.050082  0  3.867498  0
C  C27  1  0.78029413  0.24263508  0.78300007  1  0.191518  0  0.100708  0.04965  0  3.864525  0
C  C28  1  0.27554203  0.71261711  0.26119500  1  0.048299  0  -0.053315  -0.134443  0  3.880447  0
C  C29  1  0.77747986  0.28902238  0.74119144  1  0.083345  0  -0.051186  -0.128178  0  3.88148  0
C  C30  1  0.10220293  0.70581235  0.29626821  1  0.17187  0  0.030432  0.118737  0  4.043845  0
C  C31  1  0.60652236  0.29619430  0.70541866  1  0.14934  0  0.030142  0.115636  0  4.049264  0
C  C32  1  0.93494722  0.74810685  0.28655053  1  0.205864  0  0.101957  0.04862  0  3.864833  0
C  C33  1  0.44040481  0.25473497  0.71486534  1  0.178518  0  0.100614  0.049149  0  3.868524  0
C  C34  1  0.10593431  0.84494537  0.16422259  1  -0.455981  0  -0.0074  -0.000401  0  4.053659  0
C  C35  1  0.60762781  0.15679606  0.83724675  1  -0.313074  0  -0.006917  -0.000981  0  4.054274  0
C  C36  1  0.10726257  0.65992301  0.33995979  1  0.010288  0  -0.008188  -0.004712  0  4.054548  0
C  C37  1  0.61176421  0.34134322  0.66112038  1  -0.372298  0  -0.008852  -0.006539  0  4.056127  0
C  C38  1  0.12553219  0.62065844  0.37758548  1  -0.153472  0  -0.011396  -0.146439  0  3.880967  0
C  C39  1  0.62784633  0.37954332  0.62262336  1  0.231037  0  -0.011383  -0.145738  0  3.883701  0
C  C40  1  0.09067188  0.88103484  0.12400717  1  0.300577  0  -0.013615  -0.151595  0  3.887682  0
C  C41  1  0.58896361  0.11978871  0.87658277  1  0.165027  0  -0.013515  -0.150003  0  3.886168  0
C  C42  1  0.10606554  0.19264104  0.37357960  1  0.03455  0  -0.061718  -0.147849  0  3.911458  0
C  C43  1  0.63076105  0.80678519  0.62614951  1  0.014166  0  -0.06162  -0.149706  0  3.908471  0
C  C44  1  0.13178994  0.31947016  0.38894121  1  0.112151  0  0.019573  -0.078141  0  3.89295  0
C  C45  1  0.62356988  0.67956386  0.61018301  1  0.060897  0  0.019387  -0.079488  0  3.895716  0
C  C46  1  0.02837645  0.23993928  0.08940786  1  0.213815  0  0.091367  0.058485  0  3.900298  0
C  C47  1  0.64937366  0.75994734  0.91142388  1  0.200311  0  0.08934  0.058606  0  3.898326  0
C  C48  1  0.00704802  0.30449860  0.12800638  1  -0.031459  0  -0.064376  -0.095804  0  3.966226  0
C  C49  1  0.68597181  0.69587934  0.87339583  1  -0.01314  0  -0.06463  -0.097068  0  3.969199  0
C  C50  1  0.04037355  0.30905837  0.19048887  1  0.066574  0  -0.076163  -0.103822  0  3.948493  0
C  C51  1  0.66888435  0.69103925  0.81027180  1  -0.026679  0  -0.076992  -0.104164  0  3.949055  0
C  C52  1  0.09181134  0.24936192  0.21683918  1  0.036597  0  0.012601  0.064403  0  3.937612  0
C  C53  1  0.61687748  0.74992424  0.78287144  1  0.042686  0  0.014279  0.066224  0  3.933  0
C  C54  1  0.09795314  0.18303718  0.17697743  1  0.054351  0  0.005459  -0.030183  0  3.943459  0
C  C55  1  0.59328097  0.81599401  0.82257195  1  0.108397  0  0.003503  -0.032695  0  3.941732  0
C  C56  1  0.12155635  0.25249772  0.28286711  1  0.027592  0  0.016093  -0.002848  0  3.910673  0
C  C57  1  0.60332260  0.74640961  0.71628410  1  0.069481  0  0.016  -0.001502  0  3.908664  0
C  C58  1  0.11568709  0.18969501  0.30903117  1  0.091823  0  0.009998  0.072313  0  4.00673  0
C  C59  1  0.60611483  0.80935600  0.69031997  1  0.049404  0  0.010242  0.070865  0  4.007401  0
C  C60  1  0.11595131  0.12447357  0.26791162  1  0.24689  0  0.071655  -0.091539  0  3.937931  0
C  C61  1  0.58607921  0.87435152  0.73136665  1  0.327049  0  0.071043  -0.090432  0  3.938556  0
C  C62  1  0.11505349  0.12166936  0.20536709  1  0.559115  0  0.127247  0.219853  0  4.022341  0
C  C63  1  0.57299439  0.87699648  0.79378679  1  0.457641  0  0.127434  0.219047  0  4.021542  0
C  C64  1  0.14740575  0.31514494  0.32531666  1  0.215591  0  0.093368  0.026996  0  3.853466  0
C  C65  1  0.59498607  0.68338658  0.67334692  1  0.209788  0  0.093705  0.027112  0  3.854732  0
C  C66  1  0.10617139  0.25638188  0.41170526  1  0.185659  0  0.091931  0.075607  0  3.905329  0
C  C67  1  0.64660211  0.74313370  0.58805674  1  0.206147  0  0.092729  0.076169  0  3.905611  0
C  C68  1  0.07344821  0.17875283  0.11207930  1  0.020163  0  0.022601  -0.051014  0  3.849635  0
C  C69  1  0.60395705  0.82058771  0.88787969  1  0.038423  0  0.023886  -0.049115  0  3.844543  0
C  C70  1  0.58470463  0.07565504  0.92317862  1  1.674425  0  0.282224  0.717663  0  4.15333  0
C  C71  1  0.08554020  0.92434756  0.07676634  1  1.67449  0  0.282467  0.718575  0  4.151369  0
C  C72  1  0.58831707  0.89051199  0.93003371  1  1.671593  0  0.259291  0.626104  0  4.212143  0
C  C73  1  0.08197196  0.10891305  0.06967815  1  1.670083  0  0.258433  0.624604  0  4.215471  0
N  N74  1  0.74392980  0.74170238  0.31883458  1  0.389377  0  0.059972  0.510469  0  4.213167  0
N  N75  1  0.25044699  0.26195198  0.68242236  1  0.401328  0  0.061654  0.511839  0  4.209083  0
N  N76  1  0.46959981  0.76518785  0.18700166  1  0.368722  0  0.06025  0.511563  0  4.209007  0
N  N77  1  0.96909298  0.23631248  0.81633147  1  0.373987  0  0.061151  0.511304  0  4.207089  0
N  N78  1  0.09051201  0.25662838  0.47916048  1  0.40479  0  0.067187  0.511608  0  4.19212  0
N  N79  1  0.67620297  0.74312514  0.52109820  1  0.403731  0  0.067552  0.512371  0  4.199393  0
N  N80  1  0.12463100  0.05829456  0.29300229  1  0.417527  0  0.061256  0.531598  0  4.225188  0
N  N81  1  0.56956497  0.94032820  0.70620252  1  0.421764  0  0.06088  0.530823  0  4.229194  0
N  N82  1  0.21210119  0.37971833  0.30311365  1  0.398528  0  0.056835  0.505809  0  4.242055  0
N  N83  1  0.53415917  0.61750217  0.69397025  1  0.419021  0  0.056646  0.504567  0  4.245098  0
N  N84  1  0.99262574  0.23822481  0.02258889  1  0.387823  0  0.065942  0.513574  0  4.195946  0
N  N85  1  0.67037337  0.76178817  0.97888327  1  0.39949  0  0.06437  0.509297  0  4.197595  0
O  O86  1  0.46108281  0.43853751  0.55483560  1  -1.230411  0  -0.218682  -0.572984  0  2.297768  0
O  O87  1  0.96587272  0.55194008  0.43846818  1  -1.229569  0  -0.220072  -0.577195  0  2.301168  0
O  O88  1  0.80268126  0.58690196  0.55148179  1  -1.232563  0  -0.223895  -0.566707  0  2.353756  0
O  O89  1  0.30142889  0.41864795  0.43982022  1  -1.236037  0  -0.22738  -0.573194  0  2.348703  0
O  O90  1  0.79908067  0.44730332  0.56231172  1  -1.236639  0  -0.221303  -0.579413  0  2.295365  0
O  O91  1  0.30439925  0.56035173  0.44288323  1  -1.230301  0  -0.22094  -0.575863  0  2.291673  0
O  O92  1  0.96182822  0.41209263  0.44926199  1  -1.228384  0  -0.224492  -0.56852  0  2.357405  0
O  O93  1  0.46227877  0.58031869  0.55800556  1  -1.236871  0  -0.227842  -0.574522  0  2.354866  0
O  O94  1  0.63398269  0.49300845  0.46192603  1  -1.430555  0  -0.445943  -0.985568  0  2.160926  0
O  O95  1  0.13229288  0.50611157  0.53728792  1  -1.426422  0  -0.445833  -0.98597  0  2.161929  0
O  O96  1  0.75673140  0.91804042  0.94325280  1  -1.239559  0  -0.232445  -0.584536  0  2.35864  0
O  O97  1  0.25441921  0.08472522  0.05406091  1  -1.234922  0  -0.229736  -0.577933  0  2.372043  0
O  O98  1  0.41480490  0.05572168  0.93943998  1  -1.229412  0  -0.222054  -0.57774  0  2.297711  0
O  O99  1  0.91437473  0.94024463  0.05743609  1  -1.234718  0  -0.22249  -0.579761  0  2.302295  0
O  O100  1  0.41505536  0.91470375  0.94438899  1  -1.229617  0  -0.229754  -0.578537  0  2.369915  0
O  O101  1  0.91288900  0.08154506  0.05748615  1  -1.238926  0  -0.231957  -0.583524  0  2.357777  0
O  O102  1  0.25398609  0.94367699  0.05877336  1  -1.227731  0  -0.219488  -0.575121  0  2.301487  0
O  O103  1  0.75409019  0.05972843  0.94377271  1  -1.234008  0  -0.219383  -0.576704  0  2.308119  0
O  O104  1  0.58294843  0.00526895  0.03754818  1  -1.427375  0  -0.446111  -0.979382  0  2.158672  0
O  O105  1  0.08475870  0.99427534  0.96199056  1  -1.432241  0  -0.446098  -0.979769  0  2.157578  0
O  O106  1  0.70109782  0.68310064  0.32996929  1  -0.424022  0  -0.104365  -0.306197  0  1.93814  0
O  O107  1  0.63611286  0.79481875  0.33045174  1  -0.446642  0  -0.122963  -0.319392  0  1.889959  0
O  O108  1  0.20346494  0.32102498  0.67232985  1  -0.430596  0  -0.105814  -0.306151  0  1.930184  0
O  O109  1  0.14758062  0.20896251  0.66979726  1  -0.441818  0  -0.121507  -0.31747  0  1.888458  0
O  O110  1  0.51366327  0.82360676  0.17578920  1  -0.423722  0  -0.101947  -0.301087  0  1.932148  0
O  O111  1  0.57585402  0.71165310  0.17501066  1  -0.424781  0  -0.128114  -0.325511  0  1.884462  0
O  O112  1  0.01596368  0.17787594  0.82784663  1  -0.41183  0  -0.102308  -0.301037  0  1.929052  0
O  O113  1  0.07128924  0.28962327  0.82844550  1  -0.43912  0  -0.12947  -0.327321  0  1.882891  0
O  O114  1  0.15385596  0.30858691  0.51341680  1  -0.416664  0  -0.093547  -0.280786  0  1.940319  0
O  O115  1  0.01724956  0.20468130  0.49616313  1  -0.425603  0  -0.121328  -0.312942  0  1.861648  0
O  O116  1  0.62420045  0.69041182  0.48557814  1  -0.415626  0  -0.090537  -0.277923  0  1.945876  0
O  O117  1  0.74948210  0.79596457  0.50565209  1  -0.424332  0  -0.124225  -0.315811  0  1.860572  0
O  O118  1  0.98831825  0.01661225  0.27878427  1  -0.420331  0  -0.111479  -0.30237  0  1.860444  0
O  O119  1  0.26875404  0.05028086  0.32659333  1  -0.418371  0  -0.117039  -0.306147  0  1.845368  0
O  O120  1  0.69424032  0.98554460  0.72334364  1  -0.417957  0  -0.111245  -0.301578  0  1.86221  0
O  O121  1  0.43067256  0.94468838  0.66974165  1  -0.422901  0  -0.117616  -0.307705  0  1.845223  0
O  O122  1  0.10531887  0.43276559  0.31619415  1  -0.428151  0  -0.105749  -0.298882  0  1.910719  0
O  O123  1  0.37218041  0.37540583  0.27427176  1  -0.422659  0  -0.115001  -0.305093  0  1.866197  0
O  O124  1  0.36796464  0.61852126  0.71895852  1  -0.416871  0  -0.11395  -0.301721  0  1.865813  0
O  O125  1  0.65051192  0.56667484  0.68343937  1  -0.446917  0  -0.105879  -0.299443  0  1.910556  0
O  O126  1  0.89671387  0.28786893  0.00741083  1  -0.441128  0  -0.132933  -0.33149  0  1.860503  0
O  O127  1  0.06116335  0.18770240  0.98655773  1  -0.416963  0  -0.092649  -0.280874  0  1.95169  0
O  O128  1  0.75902938  0.71182784  0.99601250  1  -0.434994  0  -0.128317  -0.32543  0  1.865666  0
O  O129  1  0.59727030  0.81271710  0.01344366  1  -0.418081  0  -0.095598  -0.284358  0  1.95345  0
F  F130  1  0.12547964  0.05862699  0.16945514  1  -0.608512  0  -0.051569  -0.075477  0  1.450831  0
F  F131  1  0.54410272  0.93963447  0.82935392  1  -0.614559  0  -0.051721  -0.075065  0  1.446449  0
