# generated using pymatgen
data_ZnH8C12(NO2)2
_symmetry_space_group_name_H-M   'P 1'
_cell_length_a   5.71070566
_cell_length_b   15.97499156
_cell_length_c   15.97661493
_cell_angle_alpha   120.06263854
_cell_angle_beta   89.99938762
_cell_angle_gamma   90.00094520
_symmetry_Int_Tables_number   1
_chemical_formula_structural   ZnH8C12(NO2)2
_chemical_formula_sum   'Zn3 H24 C36 N6 O12'
_cell_volume   1261.45379061
_cell_formula_units_Z   3
loop_
 _symmetry_equiv_pos_site_id
 _symmetry_equiv_pos_as_xyz
  1  'x, y, z'
loop_
 _atom_site_type_symbol
 _atom_site_label
 _atom_site_symmetry_multiplicity
 _atom_site_fract_x
 _atom_site_fract_y
 _atom_site_fract_z
 _atom_site_occupancy
 _atom_site_pbe_bader_charge
 _atom_site_pbe_bader_spin_density
 _atom_site_pbe_cm5_charge
 _atom_site_pbe_ddec_charge
 _atom_site_pbe_ddec_spin_density
 _atom_site_pbe_ddec_sum_bond_order
 _atom_site_pbe_magmom
Zn  Zn0  1  0.85124630  0.00000227  0.50000096  1  1.248631  0  0.70032  0.749996  0  2.382004  0
Zn  Zn1  1  0.18270926  0.50000192  0.00000457  1  1.246606  0  0.700244  0.75032  0  2.382625  0
Zn  Zn2  1  0.51775315  0.50000536  0.49999965  1  1.241316  0  0.700566  0.75068  0  2.383474  0
H  H3  1  0.17872556  0.87782831  0.25325818  1  0.120379  0  0.117836  0.131138  0  0.980012  0
H  H4  1  0.41007298  0.00107917  0.39664127  1  0.126421  0  0.120836  0.104622  0  1.013005  0
H  H5  1  0.91244747  0.79671551  0.35732612  1  0.100562  0  0.116603  0.084414  0  1.014678  0
H  H6  1  0.70664538  0.66750258  0.21026020  1  0.148292  0  0.109566  0.121424  0  1.019642  0
H  H7  1  0.51140810  0.37526057  0.12242812  1  0.125991  0  0.117973  0.131475  0  0.980005  0
H  H8  1  0.74130744  0.39568548  0.99918390  1  0.17216  0  0.120985  0.105094  0  1.013305  0
H  H9  1  0.24516054  0.56057571  0.20308562  1  0.119769  0  0.116513  0.084411  0  1.013758  0
H  H10  1  0.04078762  0.54233176  0.33218663  1  0.146155  0  0.109527  0.121684  0  1.01942  0
H  H11  1  0.84623678  0.74725708  0.62442331  1  0.116214  0  0.117919  0.131525  0  0.980452  0
H  H12  1  0.07658093  0.60373011  0.60424768  1  0.158812  0  0.120734  0.104294  0  1.013893  0
H  H13  1  0.58010531  0.64230973  0.43924779  1  0.119547  0  0.116543  0.084174  0  1.014431  0
H  H14  1  0.37535280  0.78950450  0.45717291  1  0.120533  0  0.109681  0.121628  0  1.019214  0
H  H15  1  0.17871043  0.12216809  0.74673037  1  0.120361  0  0.117849  0.131142  0  0.980004  0
H  H16  1  0.41004838  0.99892377  0.60335164  1  0.126907  0  0.120887  0.104621  0  1.013033  0
H  H17  1  0.91245339  0.20328425  0.64267056  1  0.100899  0  0.116656  0.084413  0  1.01479  0
H  H18  1  0.70665311  0.33249841  0.78973323  1  0.148178  0  0.109521  0.121264  0  1.019686  0
H  H19  1  0.51142201  0.62473880  0.87756997  1  0.12596  0  0.117992  0.131472  0  0.980134  0
H  H20  1  0.74131173  0.60431467  0.00081426  1  0.172099  0  0.120983  0.105087  0  1.013369  0
H  H21  1  0.24514519  0.43942886  0.79692007  1  0.119699  0  0.116508  0.084362  0  1.014038  0
H  H22  1  0.04079979  0.45767259  0.66782229  1  0.146121  0  0.109496  0.121618  0  1.019592  0
H  H23  1  0.84624612  0.25274254  0.37558955  1  0.116048  0  0.11797  0.131566  0  0.980326  0
H  H24  1  0.07656331  0.39627581  0.39576982  1  0.158645  0  0.120735  0.104258  0  1.014057  0
H  H25  1  0.58014040  0.35769020  0.56074248  1  0.119435  0  0.11651  0.084102  0  1.014459  0
H  H26  1  0.37541986  0.21048860  0.54280966  1  0.120685  0  0.109619  0.121666  0  1.019166  0
C  C27  1  0.28759014  0.68635431  0.13780026  1  1.587372  0  0.197062  0.54481  0  4.246681  0
C  C28  1  0.42508336  0.76322791  0.22180032  1  -0.031447  0  0.007747  0.023632  0  3.930383  0
C  C29  1  0.34155227  0.85810326  0.27453817  1  -0.086078  0  -0.069654  -0.132578  0  3.91732  0
C  C30  1  0.46775078  0.92623573  0.35404765  1  0.539392  0  0.055026  0.107003  0  3.89579  0
C  C31  1  0.74896403  0.81131821  0.33181790  1  0.433303  0  0.047579  0.089529  0  3.941251  0
C  C32  1  0.63414234  0.74001613  0.25098433  1  0.024776  0  -0.075048  -0.126664  0  3.937775  0
C  C33  1  0.62167188  0.45116138  0.31365855  1  1.597177  0  0.196723  0.545166  0  4.246654  0
C  C34  1  0.75847067  0.45831153  0.23676832  1  -0.086379  0  0.008042  0.024069  0  3.930831  0
C  C35  1  0.67421529  0.41630214  0.14204561  1  0.059309  0  -0.069978  -0.133465  0  3.919832  0
C  C36  1  0.79969846  0.42777695  0.07390238  1  0.409346  0  0.055472  0.107098  0  3.897689  0
C  C37  1  0.08165285  0.52038149  0.18851983  1  0.404588  0  0.04754  0.089197  0  3.941575  0
C  C38  1  0.96761036  0.51071331  0.25981535  1  -0.007463  0  -0.074947  -0.126827  0  3.937663  0
C  C39  1  0.95619208  0.86236293  0.54842451  1  1.569464  0  0.196776  0.54414  0  4.248401  0
C  C40  1  0.09324953  0.77835492  0.54132793  1  -0.015784  0  0.007679  0.023186  0  3.930891  0
C  C41  1  0.00908640  0.72577940  0.58342915  1  -0.055369  0  -0.070036  -0.13336  0  3.918898  0
C  C42  1  0.13471536  0.64616982  0.57198572  1  0.491751  0  0.05569  0.107911  0  3.898284  0
C  C43  1  0.41656511  0.66799606  0.47935891  1  0.404721  0  0.047403  0.089669  0  3.940943  0
C  C44  1  0.30239889  0.74892598  0.48895354  1  0.052675  0  -0.074893  -0.126323  0  3.937348  0
C  C45  1  0.28761929  0.31364368  0.86219714  1  1.587327  0  0.197062  0.544787  0  4.2468  0
C  C46  1  0.42509733  0.23677363  0.77819904  1  -0.031529  0  0.007659  0.023507  0  3.930819  0
C  C47  1  0.34154574  0.14190147  0.72545769  1  -0.085473  0  -0.069526  -0.132411  0  3.917106  0
C  C48  1  0.46774686  0.07376416  0.64594475  1  0.538572  0  0.054948  0.106963  0  3.895681  0
C  C49  1  0.74897724  0.18868164  0.66817557  1  0.433112  0  0.047504  0.089514  0  3.941008  0
C  C50  1  0.63413204  0.25998248  0.74901873  1  0.024772  0  -0.074962  -0.126397  0  3.937747  0
C  C51  1  0.62169139  0.54884342  0.68633201  1  1.596119  0  0.196785  0.544935  0  4.246348  0
C  C52  1  0.75852954  0.54168630  0.76324475  1  -0.118648  0  0.007819  0.023664  0  3.930278  0
C  C53  1  0.67420855  0.58370389  0.85796896  1  0.058953  0  -0.070035  -0.133395  0  3.919465  0
C  C54  1  0.79971013  0.57221448  0.92609970  1  0.41014  0  0.055531  0.107212  0  3.898648  0
C  C55  1  0.08167227  0.47961607  0.81148350  1  0.405159  0  0.047594  0.089381  0  3.942394  0
C  C56  1  0.96765165  0.48927725  0.74018697  1  0.026617  0  -0.074809  -0.126582  0  3.937917  0
C  C57  1  0.95624787  0.13762514  0.45157900  1  1.57031  0  0.197051  0.544507  0  4.247989  0
C  C58  1  0.09329514  0.22164921  0.45866888  1  -0.003223  0  0.00769  0.023087  0  3.930349  0
C  C59  1  0.00911655  0.27422428  0.41657280  1  -0.068355  0  -0.070121  -0.133357  0  3.919364  0
C  C60  1  0.13471048  0.35383035  0.42801771  1  0.491328  0  0.055614  0.107775  0  3.898482  0
C  C61  1  0.41660017  0.33200592  0.52063372  1  0.406637  0  0.047374  0.089613  0  3.941568  0
C  C62  1  0.30246886  0.25107596  0.51104122  1  0.05028  0  -0.074861  -0.126431  0  3.937167  0
N  N63  1  0.66743789  0.90272405  0.38267820  1  -1.260158  0  -0.328683  -0.229409  0  3.585056  0
N  N64  1  0.99944876  0.47992960  0.09723356  1  -1.235711  0  -0.328884  -0.229536  0  3.586152  0
N  N65  1  0.33438429  0.61727411  0.51985627  1  -1.255264  0  -0.328781  -0.229775  0  3.587933  0
N  N66  1  0.66743947  0.09727414  0.61731412  1  -1.260429  0  -0.328726  -0.229502  0  3.585165  0
N  N67  1  0.99942010  0.52007528  0.90275832  1  -1.236871  0  -0.328913  -0.229713  0  3.58741  0
N  N68  1  0.33440901  0.38272666  0.48015230  1  -1.254563  0  -0.328605  -0.229405  0  3.587394  0
O  O69  1  0.39983954  0.60536240  0.08613584  1  -1.170567  0  -0.333366  -0.554396  0  2.321461  0
O  O70  1  0.08063905  0.70199822  0.12509608  1  -1.157922  0  -0.315754  -0.538608  0  2.124324  0
O  O71  1  0.73444552  0.48038674  0.39447735  1  -1.169196  0  -0.33308  -0.554337  0  2.321057  0
O  O72  1  0.41459545  0.42295216  0.29822257  1  -1.156691  0  -0.315955  -0.539077  0  2.123737  0
O  O73  1  0.06855741  0.91375370  0.51891163  1  -1.169788  0  -0.332543  -0.553309  0  2.321616  0
O  O74  1  0.74930335  0.87530291  0.57689936  1  -1.159132  0  -0.31644  -0.539132  0  2.125066  0
O  O75  1  0.39986753  0.39463450  0.91386556  1  -1.170758  0  -0.33331  -0.554354  0  2.321259  0
O  O76  1  0.08067056  0.29800817  0.87490092  1  -1.157701  0  -0.315831  -0.538658  0  2.124499  0
O  O77  1  0.73449758  0.51960875  0.60551040  1  -1.169586  0  -0.333067  -0.5542  0  2.320858  0
O  O78  1  0.41460535  0.57706444  0.70179553  1  -1.156684  0  -0.315918  -0.538918  0  2.123768  0
O  O79  1  0.06862384  0.08624096  0.48110332  1  -1.169258  0  -0.332702  -0.553458  0  2.321379  0
O  O80  1  0.74936988  0.12468316  0.42309912  1  -1.159599  0  -0.316512  -0.539231  0  2.125154  0
