# generated using pymatgen
data_NiH20C20(NO3)2
_symmetry_space_group_name_H-M   'P 1'
_cell_length_a   5.56980468
_cell_length_b   7.89645597
_cell_length_c   11.43328926
_cell_angle_alpha   114.43818983
_cell_angle_beta   91.81540813
_cell_angle_gamma   103.03032589
_symmetry_Int_Tables_number   1
_chemical_formula_structural   NiH20C20(NO3)2
_chemical_formula_sum   'Ni1 H20 C20 N2 O6'
_cell_volume   441.56745143
_cell_formula_units_Z   1
loop_
 _symmetry_equiv_pos_site_id
 _symmetry_equiv_pos_as_xyz
  1  'x, y, z'
loop_
 _atom_site_type_symbol
 _atom_site_label
 _atom_site_symmetry_multiplicity
 _atom_site_fract_x
 _atom_site_fract_y
 _atom_site_fract_z
 _atom_site_occupancy
 _atom_site_hle17_bader_spin_density
 _atom_site_hle17_ddec_charge
 _atom_site_hle17_ddec_spin_density
 _atom_site_hle17_ddec_sum_bond_order
 _atom_site_hle17_magmom
 _atom_site_hse06_10hf_bader_spin_density
 _atom_site_hse06_10hf_ddec_charge
 _atom_site_hse06_10hf_ddec_spin_density
 _atom_site_hse06_10hf_ddec_sum_bond_order
 _atom_site_hse06_10hf_magmom
 _atom_site_hse06_bader_spin_density
 _atom_site_hse06_ddec_charge
 _atom_site_hse06_ddec_spin_density
 _atom_site_hse06_ddec_sum_bond_order
 _atom_site_hse06_magmom
 _atom_site_pbe_bader_spin_density
 _atom_site_pbe_cm5_charge
 _atom_site_pbe_ddec_charge
 _atom_site_pbe_ddec_spin_density
 _atom_site_pbe_ddec_sum_bond_order
 _atom_site_pbe_magmom
Ni  Ni0  1  0.99997967  0.50001837  0.50000921  1  0  0.657901  0  2.168271  0  0  0.608499  0  2.633191  0  0  0.689196  0  2.551023  0  0  0.600511  0.564785  0  2.684098  0
H  H1  1  0.86344386  0.24488491  0.56716587  1  0  0.407075  0  0.908953  0  0  0.374997  0  0.977712  0  0  0.388603  0  0.958993  0  0  0.281953  0.365437  0  0.990838  0
H  H2  1  0.13655419  0.75514790  0.43285060  1  0  0.407038  0  0.908974  0  0  0.374974  0  0.97774  0  0  0.38858  0  0.95902  0  0  0.28195  0.365416  0  0.990861  0
H  H3  1  0.61143344  0.31870027  0.55300736  1  0  0.412693  0  0.898521  0  0  0.383823  0  0.960218  0  0  0.39649  0  0.942655  0  0  0.285419  0.375068  0  0.972296  0
H  H4  1  0.38857308  0.68132994  0.44700706  1  0  0.412741  0  0.898452  0  0  0.383871  0  0.960141  0  0  0.396536  0  0.94258  0  0  0.285399  0.375116  0  0.972219  0
H  H5  1  0.43750133  0.84381101  0.29971489  1  0  0.12307  0  0.937839  0  0  0.138719  0  0.992903  0  0  0.142029  0  0.990273  0  0  0.102726  0.136298  0  0.994869  0
H  H6  1  0.56248557  0.15616872  0.70025747  1  0  0.123139  0  0.937878  0  0  0.138822  0  0.992925  0  0  0.142131  0  0.990299  0  0  0.102798  0.136408  0  0.994875  0
H  H7  1  0.71962987  0.95282370  0.25963389  1  0  0.104957  0  0.964871  0  0  0.115533  0  1.033424  0  0  0.117069  0  1.034011  0  0  0.093347  0.114674  0  1.032817  0
H  H8  1  0.28039759  0.04717811  0.74035833  1  0  0.104938  0  0.964902  0  0  0.115545  0  1.033481  0  0  0.117086  0  1.034064  0  0  0.093377  0.114682  0  1.032874  0
H  H9  1  0.16723217  0.55354366  0.14015539  1  0  0.092978  0  0.975795  0  0  0.101338  0  1.043703  0  0  0.104209  0  1.04295  0  0  0.095192  0.099215  0  1.044411  0
H  H10  1  0.83281779  0.44643226  0.85983727  1  0  0.092981  0  0.975897  0  0  0.101372  0  1.043743  0  0  0.104242  0  1.04299  0  0  0.095206  0.099249  0  1.044453  0
H  H11  1  0.07363825  0.28527353  0.91790118  1  0  0.084255  0  0.988773  0  0  0.095157  0  1.054988  0  0  0.097498  0  1.054555  0  0  0.093385  0.093551  0  1.055295  0
H  H12  1  0.92642131  0.71470012  0.08209571  1  0  0.084217  0  0.988709  0  0  0.095121  0  1.054988  0  0  0.097464  0  1.054517  0  0  0.0934  0.093512  0  1.055292  0
H  H13  1  0.30244299  0.24262155  0.37650842  1  0  0.112548  0  0.939248  0  0  0.118374  0  1.001895  0  0  0.121184  0  0.998424  0  0  0.131347  0.115768  0  1.005275  0
H  H14  1  0.69754025  0.75740923  0.62350596  1  0  0.112648  0  0.939449  0  0  0.118449  0  1.002116  0  0  0.121256  0  0.998657  0  0  0.131409  0.115899  0  1.005426  0
H  H15  1  0.31213122  0.01030984  0.15266357  1  0  0.108031  0  0.960112  0  0  0.120511  0  1.018129  0  0  0.123006  0  1.01803  0  0  0.113145  0.11865  0  1.018508  0
H  H16  1  0.68784730  0.98970681  0.84735306  1  0  0.108075  0  0.960123  0  0  0.120524  0  1.018212  0  0  0.123018  0  1.018121  0  0  0.113174  0.118664  0  1.018595  0
H  H17  1  0.68748636  0.17272464  0.03112746  1  0  0.106678  0  0.960121  0  0  0.117399  0  1.019645  0  0  0.11962  0  1.020585  0  0  0.109904  0.115744  0  1.019274  0
H  H18  1  0.31248130  0.82724912  0.96888280  1  0  0.106862  0  0.959841  0  0  0.117523  0  1.019431  0  0  0.119748  0  1.020365  0  0  0.109905  0.115853  0  1.019069  0
H  H19  1  0.70725369  0.39814569  0.26062173  1  0  0.094898  0  0.970762  0  0  0.098037  0  1.040936  0  0  0.099886  0  1.039438  0  0  0.122213  0.09635  0  1.042598  0
H  H20  1  0.29271491  0.60185417  0.73937431  1  0  0.095021  0  0.970737  0  0  0.09813  0  1.04093  0  0  0.09998  0  1.039429  0  0  0.122246  0.096441  0  1.042594  0
C  C21  1  0.76636040  0.76893069  0.34796064  1  0  0.717372  0  3.818894  0  0  0.672248  0  4.119591  0  0  0.705446  0  4.111827  0  0  0.216661  0.649834  0  4.123724  0
C  C22  1  0.23364974  0.23106366  0.65203587  1  0  0.717235  0  3.819244  0  0  0.672202  0  4.119844  0  0  0.705402  0  4.112076  0  0  0.216561  0.649781  0  4.123977  0
C  C23  1  0.61037504  0.81949970  0.26075441  1  0  -0.323707  0  3.692672  0  0  -0.365566  0  3.931234  0  0  -0.370247  0  3.93594  0  0  -0.169985  -0.362254  0  3.927703  0
C  C24  1  0.38964505  0.18048587  0.73922712  1  0  -0.323803  0  3.692919  0  0  -0.365821  0  3.931626  0  0  -0.370514  0  3.936328  0  0  -0.170106  -0.362485  0  3.92806  0
C  C25  1  0.55258485  0.65596860  0.12574134  1  0  0.103259  0  3.767526  0  0  0.123207  0  4.004133  0  0  0.123504  0  4.028114  0  0  -0.019421  0.122922  0  3.987732  0
C  C26  1  0.44748041  0.34400600  0.87424116  1  0  0.103711  0  3.767424  0  0  0.12368  0  4.004058  0  0  0.12399  0  4.028018  0  0  -0.019437  0.123373  0  3.987682  0
C  C27  1  0.31355858  0.53043922  0.07858254  1  0  -0.132931  0  3.760315  0  0  -0.150462  0  4.007438  0  0  -0.153131  0  4.029146  0  0  -0.103875  -0.148457  0  3.992534  0
C  C28  1  0.68648411  0.46951883  0.92139463  1  0  -0.13326  0  3.760053  0  0  -0.150835  0  4.007211  0  0  -0.153507  0  4.02891  0  0  -0.103907  -0.148827  0  3.992321  0
C  C29  1  0.26191657  0.37820299  0.95459562  1  0  -0.134583  0  3.778563  0  0  -0.153653  0  4.024854  0  0  -0.156704  0  4.048027  0  0  -0.105789  -0.151348  0  4.008851  0
C  C30  1  0.73813959  0.62178088  0.04538185  1  0  -0.134174  0  3.777524  0  0  -0.153251  0  4.023776  0  0  -0.156282  0  4.046943  0  0  -0.105807  -0.150939  0  4.007756  0
C  C31  1  0.17419910  0.22422774  0.29567507  1  0  0.138793  0  3.622196  0  0  0.105636  0  3.8781  0  0  0.116739  0  3.891954  0  0  0.063088  0.097655  0  3.870757  0
C  C32  1  0.82577717  0.77579544  0.70433264  1  0  0.138534  0  3.622215  0  0  0.105472  0  3.878187  0  0  0.116576  0  3.892034  0  0  0.06302  0.097451  0  3.87083  0
C  C33  1  0.17480308  0.09327443  0.16915519  1  0  -0.140659  0  3.679425  0  0  -0.160685  0  3.929551  0  0  -0.167678  0  3.947716  0  0  -0.072945  -0.156463  0  3.91826  0
C  C34  1  0.82514941  0.90672229  0.83084631  1  0  -0.140644  0  3.679415  0  0  -0.160714  0  3.92959  0  0  -0.167709  0  3.947748  0  0  -0.073069  -0.1565  0  3.918332  0
C  C35  1  0.00112605  0.06850311  0.06790638  1  0  0.08671  0  3.756511  0  0  0.097119  0  3.987466  0  0  0.102314  0  4.006906  0  0  0.014466  0.093301  0  3.974807  0
C  C36  1  0.99883826  0.93148723  0.93210014  1  0  0.086826  0  3.756358  0  0  0.097284  0  3.987256  0  0  0.102485  0  4.006692  0  0  0.014634  0.093459  0  3.974599  0
C  C37  1  0.82855026  0.18021467  0.10249238  1  0  -0.148737  0  3.695097  0  0  -0.166395  0  3.943475  0  0  -0.174033  0  3.963152  0  0  -0.07469  -0.161561  0  3.930893  0
C  C38  1  0.17140296  0.81977533  0.89751531  1  0  -0.148903  0  3.695017  0  0  -0.166492  0  3.943377  0  0  -0.174136  0  3.963055  0  0  -0.074621  -0.16164  0  3.930785  0
C  C39  1  0.83734470  0.30877400  0.23056553  1  0  0.119011  0  3.660353  0  0  0.087263  0  3.914999  0  0  0.097163  0  3.931445  0  0  0.052898  0.080197  0  3.90551  0
C  C40  1  0.16262774  0.69122751  0.76943287  1  0  0.118766  0  3.660365  0  0  0.0871  0  3.915061  0  0  0.097006  0  3.931506  0  0  0.052775  0.080032  0  3.905567  0
N  N41  1  0.00874099  0.33152818  0.32580043  1  0  -0.221717  0  3.361932  0  0  -0.162056  0  3.645863  0  0  -0.190305  0  3.661339  0  0  -0.331504  -0.14626  0  3.637524  0
N  N42  1  0.99124525  0.66848379  0.67420044  1  0  -0.22135  0  3.361495  0  0  -0.161847  0  3.645552  0  0  -0.190102  0  3.661029  0  0  -0.331388  -0.146051  0  3.637232  0
O  O43  1  0.65473204  0.67500048  0.40718430  1  0  -0.662053  0  1.972603  0  0  -0.608136  0  2.204907  0  0  -0.634221  0  2.190354  0  0  -0.320807  -0.589766  0  2.214227  0
O  O44  1  0.34524877  0.32501287  0.59282019  1  0  -0.661956  0  1.972707  0  0  -0.608075  0  2.204991  0  0  -0.634159  0  2.190432  0  0  -0.320796  -0.589696  0  2.214305  0
O  O45  1  0.00090371  0.81372465  0.34939777  1  0  -0.622682  0  1.952983  0  0  -0.567604  0  2.17323  0  0  -0.593688  0  2.164037  0  0  -0.321632  -0.549017  0  2.178804  0
O  O46  1  0.99911320  0.18629177  0.65061442  1  0  -0.622645  0  1.953151  0  0  -0.56758  0  2.173349  0  0  -0.593665  0  2.16416  0  0  -0.321528  -0.548992  0  2.178928  0
O  O47  1  0.76510460  0.28992747  0.51018262  1  0  -0.75457  0  1.99117  0  0  -0.719368  0  2.224082  0  0  -0.759677  0  2.188645  0  0  -0.555401  -0.692253  0  2.247483  0
O  O48  1  0.23489778  0.71009961  0.48982817  1  0  -0.754592  0  1.990981  0  0  -0.719391  0  2.223906  0  0  -0.759697  0  2.188473  0  0  -0.5554  -0.692276  0  2.247308  0
