# generated using pymatgen
data_CdH16C18(NO)8
_symmetry_space_group_name_H-M   'P 1'
_cell_length_a   7.50558659
_cell_length_b   11.37881843
_cell_length_c   13.67210000
_cell_angle_alpha   114.93441155
_cell_angle_beta   91.75712979
_cell_angle_gamma   89.97339282
_symmetry_Int_Tables_number   1
_chemical_formula_structural   CdH16C18(NO)8
_chemical_formula_sum   'Cd2 H32 C36 N16 O16'
_cell_volume   1058.22716380
_cell_formula_units_Z   2
loop_
 _symmetry_equiv_pos_site_id
 _symmetry_equiv_pos_as_xyz
  1  'x, y, z'
loop_
 _atom_site_type_symbol
 _atom_site_label
 _atom_site_symmetry_multiplicity
 _atom_site_fract_x
 _atom_site_fract_y
 _atom_site_fract_z
 _atom_site_occupancy
 _atom_site_hle17_bader_spin_density
 _atom_site_hle17_ddec_charge
 _atom_site_hle17_ddec_spin_density
 _atom_site_hle17_ddec_sum_bond_order
 _atom_site_hle17_magmom
 _atom_site_hse06_10hf_bader_spin_density
 _atom_site_hse06_10hf_ddec_charge
 _atom_site_hse06_10hf_ddec_spin_density
 _atom_site_hse06_10hf_ddec_sum_bond_order
 _atom_site_hse06_10hf_magmom
 _atom_site_hse06_bader_spin_density
 _atom_site_hse06_ddec_charge
 _atom_site_hse06_ddec_spin_density
 _atom_site_hse06_ddec_sum_bond_order
 _atom_site_hse06_magmom
 _atom_site_pbe_bader_charge
 _atom_site_pbe_bader_spin_density
 _atom_site_pbe_cm5_charge
 _atom_site_pbe_ddec_charge
 _atom_site_pbe_ddec_spin_density
 _atom_site_pbe_ddec_sum_bond_order
 _atom_site_pbe_magmom
Cd  Cd0  1  0.50000351  0.99999860  0.50000099  1  0  1.135003  0  1.629627  0  0  0.937032  0  2.061946  0  0  0.99383  0  2.010821  0  1.296924  0  0.788319  0.896556  0  2.097014  0
Cd  Cd1  1  0.00000102  0.50000027  0.50000040  1  0  1.136784  0  1.620674  0  0  0.938865  0  2.052387  0  0  0.996035  0  2.000974  0  1.298299  0  0.784495  0.898325  0  2.087454  0
H  H2  1  0.45709417  0.08864585  0.74314107  1  0  0.085899  0  0.948232  0  0  0.09437  0  1.013329  0  0  0.096542  0  1.011439  0  0.125281  0  0.118565  0.09273  0  1.014792  0
H  H3  1  0.04469125  0.34555966  0.25526989  1  0  0.084951  0  0.948605  0  0  0.093302  0  1.014024  0  0  0.0954  0  1.012251  0  0.09946  0  0.118115  0.091744  0  1.015358  0
H  H4  1  0.54290554  0.91135372  0.25685958  1  0  0.085902  0  0.948229  0  0  0.094374  0  1.013319  0  0  0.096545  0  1.01143  0  0.12531  0  0.118572  0.092737  0  1.014774  0
H  H5  1  0.95531112  0.65443991  0.74473080  1  0  0.085029  0  0.948515  0  0  0.093367  0  1.013954  0  0  0.095466  0  1.012181  0  0.099453  0  0.118131  0.091808  0  1.015286  0
H  H6  1  0.34311079  0.27987151  0.90293099  1  0  0.123932  0  0.953075  0  0  0.12374  0  1.029197  0  0  0.128573  0  1.025587  0  0.129778  0  0.111957  0.120253  0  1.031899  0
H  H7  1  0.15757006  0.37701867  0.09658614  1  0  0.123267  0  0.954527  0  0  0.122623  0  1.031333  0  0  0.127503  0  1.027625  0  0.161571  0  0.111322  0.119113  0  1.034074  0
H  H8  1  0.65688893  0.72012903  0.09706853  1  0  0.123922  0  0.953062  0  0  0.12372  0  1.029202  0  0  0.128553  0  1.025591  0  0.129767  0  0.111949  0.120233  0  1.031905  0
H  H9  1  0.84243096  0.62297993  0.90341273  1  0  0.123278  0  0.954526  0  0  0.122615  0  1.03135  0  0  0.127495  0  1.027638  0  0.161591  0  0.111318  0.119104  0  1.034093  0
H  H10  1  0.53070120  0.30999683  0.57242481  1  0  0.094034  0  0.939638  0  0  0.10297  0  1.001863  0  0  0.105169  0  0.999778  0  0.121898  0  0.119379  0.101303  0  1.003453  0
H  H11  1  0.96952229  0.73946560  0.42854136  1  0  0.093501  0  0.93915  0  0  0.102777  0  1.001059  0  0  0.105094  0  0.998845  0  0.13896  0  0.119302  0.101043  0  1.00271  0
H  H12  1  0.46930109  0.68999886  0.42757452  1  0  0.094062  0  0.939571  0  0  0.102987  0  1.001814  0  0  0.105188  0  0.999726  0  0.121912  0  0.119389  0.101315  0  1.003402  0
H  H13  1  0.03047341  0.26053396  0.57145703  1  0  0.093475  0  0.939129  0  0  0.102767  0  1.001019  0  0  0.105084  0  0.998806  0  0.13906  0  0.119301  0.101033  0  1.002671  0
H  H14  1  0.43574754  0.51202093  0.72669186  1  0  0.122664  0  0.954593  0  0  0.123394  0  1.029192  0  0  0.127972  0  1.025664  0  0.146715  0  0.11111  0.120057  0  1.031883  0
H  H15  1  0.06328344  0.78721289  0.27530985  1  0  0.121791  0  0.957531  0  0  0.122559  0  1.032158  0  0  0.127157  0  1.028559  0  0.139804  0  0.110514  0.119193  0  1.034918  0
H  H16  1  0.56425347  0.48797767  0.27330701  1  0  0.122647  0  0.954629  0  0  0.123391  0  1.029232  0  0  0.127971  0  1.0257  0  0.146705  0  0.111124  0.120054  0  1.031923  0
H  H17  1  0.93671360  0.21278667  0.72468856  1  0  0.121738  0  0.957548  0  0  0.122535  0  1.032172  0  0  0.127136  0  1.028568  0  0.139857  0  0.110503  0.119166  0  1.034927  0
H  H18  1  0.22207773  0.97522258  0.17380565  1  0  0.116531  0  0.960662  0  0  0.123269  0  1.027291  0  0  0.127055  0  1.024574  0  0.105423  0  0.10841  0.120507  0  1.029363  0
H  H19  1  0.27654735  0.79967554  0.82786985  1  0  0.116469  0  0.960555  0  0  0.122876  0  1.027552  0  0  0.126668  0  1.024833  0  0.127108  0  0.108124  0.120126  0  1.029623  0
H  H20  1  0.77792332  0.02477796  0.82619463  1  0  0.116525  0  0.960678  0  0  0.123258  0  1.027312  0  0  0.127044  0  1.024594  0  0.105531  0  0.108413  0.120496  0  1.029386  0
H  H21  1  0.72344835  0.20032403  0.17213000  1  0  0.116455  0  0.960565  0  0  0.122859  0  1.027569  0  0  0.126651  0  1.024849  0  0.127103  0  0.108115  0.12011  0  1.02964  0
H  H22  1  0.23695224  0.19030294  0.16726932  1  0  0.066165  0  0.949452  0  0  0.074404  0  1.012775  0  0  0.076345  0  1.011653  0  0.077164  0  0.106618  0.073005  0  1.013627  0
H  H23  1  0.26378162  0.02124988  0.83408438  1  0  0.066844  0  0.946136  0  0  0.075474  0  1.009058  0  0  0.077479  0  1.007832  0  0.085356  0  0.106861  0.07404  0  1.00996  0
H  H24  1  0.76304882  0.80969760  0.83273096  1  0  0.066167  0  0.949435  0  0  0.07441  0  1.012755  0  0  0.07635  0  1.011635  0  0.077168  0  0.106624  0.07301  0  1.013607  0
H  H25  1  0.73621944  0.97875066  0.16591517  1  0  0.066835  0  0.946105  0  0  0.075453  0  1.009036  0  0  0.077459  0  1.007807  0  0.085374  0  0.106837  0.074018  0  1.009938  0
H  H26  1  0.32816803  0.15848724  0.39586404  1  0  0.418146  0  0.880854  0  0  0.382851  0  0.953259  0  0  0.394486  0  0.936111  0  0.648538  0  0.289121  0.374618  0  0.965357  0
H  H27  1  0.17123792  0.76233704  0.60468085  1  0  0.418977  0  0.878472  0  0  0.383026  0  0.952934  0  0  0.394714  0  0.935745  0  0.638396  0  0.289276  0.374716  0  0.965117  0
H  H28  1  0.67183567  0.84151233  0.60413960  1  0  0.418117  0  0.880904  0  0  0.382819  0  0.953309  0  0  0.394453  0  0.936162  0  0.648521  0  0.289088  0.374586  0  0.965408  0
H  H29  1  0.82876186  0.23766640  0.39532043  1  0  0.418895  0  0.878475  0  0  0.382938  0  0.95304  0  0  0.394625  0  0.935852  0  0.638428  0  0.28926  0.374628  0  0.965221  0
H  H30  1  0.21238335  0.03758275  0.37433432  1  0  0.418798  0  0.880531  0  0  0.389483  0  0.943092  0  0  0.399865  0  0.927821  0  0.640809  0  0.293004  0.382125  0  0.953908  0
H  H31  1  0.28730096  0.66331729  0.62609341  1  0  0.418258  0  0.881773  0  0  0.388687  0  0.94427  0  0  0.399139  0  0.928903  0  0.64108  0  0.292551  0.381334  0  0.955062  0
H  H32  1  0.78762169  0.96241682  0.62566934  1  0  0.418761  0  0.880564  0  0  0.389439  0  0.943153  0  0  0.399819  0  0.927884  0  0.640766  0  0.292973  0.382082  0  0.953966  0
H  H33  1  0.71270013  0.33668519  0.37390755  1  0  0.418316  0  0.881714  0  0  0.388742  0  0.9442  0  0  0.399195  0  0.928832  0  0.641081  0  0.292584  0.381388  0  0.954994  0
C  C34  1  0.44542554  0.18409100  0.74312595  1  0  0.131573  0  3.693173  0  0  0.099087  0  3.944955  0  0  0.105004  0  3.965389  0  0.431778  0  0.043582  0.095184  0  3.931083  0
C  C35  1  0.05585392  0.44158054  0.25633846  1  0  0.130557  0  3.69506  0  0  0.098292  0  3.947369  0  0  0.104173  0  3.967798  0  0.495104  0  0.043019  0.094418  0  3.933482  0
C  C36  1  0.55457416  0.81590857  0.25687397  1  0  0.131597  0  3.693079  0  0  0.099128  0  3.944839  0  0  0.105045  0  3.965272  0  0.43158  0  0.043596  0.095228  0  3.930967  0
C  C37  1  0.94414578  0.55841902  0.74366145  1  0  0.130493  0  3.69502  0  0  0.098237  0  3.947325  0  0  0.104116  0  3.967757  0  0.494902  0  0.043  0.094366  0  3.933436  0
C  C38  1  0.38521174  0.29025898  0.83132304  1  0  -0.12263  0  3.662756  0  0  -0.143353  0  3.914307  0  0  -0.149464  0  3.934394  0  0.043934  0  -0.075266  -0.139289  0  3.900804  0
C  C39  1  0.11550680  0.45954951  0.16852075  1  0  -0.122411  0  3.661961  0  0  -0.143162  0  3.913279  0  0  -0.149226  0  3.933342  0  -0.017037  0  -0.075158  -0.13912  0  3.899796  0
C  C40  1  0.61478797  0.70974058  0.16867615  1  0  -0.1226  0  3.662663  0  0  -0.143321  0  3.91424  0  0  -0.149431  0  3.934326  0  0.043949  0  -0.075257  -0.139259  0  3.900738  0
C  C41  1  0.88449557  0.54045006  0.83147921  1  0  -0.122423  0  3.662006  0  0  -0.143176  0  3.913296  0  0  -0.149236  0  3.933356  0  -0.017053  0  -0.075174  -0.139135  0  3.899813  0
C  C42  1  0.48889174  0.30740990  0.64699917  1  0  0.136882  0  3.679908  0  0  0.104034  0  3.934641  0  0  0.111022  0  3.953514  0  0.465863  0  0.050614  0.099454  0  3.921721  0
C  C43  1  0.01162242  0.66179363  0.35377060  1  0  0.134962  0  3.677895  0  0  0.101888  0  3.93301  0  0  0.108709  0  3.951945  0  0.468072  0  0.048523  0.097395  0  3.920106  0
C  C44  1  0.51111060  0.69258773  0.35300084  1  0  0.136767  0  3.679785  0  0  0.103957  0  3.93452  0  0  0.110942  0  3.953394  0  0.466124  0  0.050559  0.099385  0  3.921594  0
C  C45  1  0.98837461  0.33820594  0.64622780  1  0  0.134969  0  3.67777  0  0  0.10189  0  3.932898  0  0  0.108709  0  3.951835  0  0.467631  0  0.048526  0.097396  0  3.919992  0
C  C46  1  0.43526072  0.41974136  0.73290924  1  0  -0.113675  0  3.657909  0  0  -0.135765  0  3.911994  0  0  -0.141578  0  3.931476  0  -0.012097  0  -0.071322  -0.131915  0  3.898904  0
C  C47  1  0.06460395  0.68829879  0.26830758  1  0  -0.112653  0  3.656625  0  0  -0.135047  0  3.910165  0  0  -0.140779  0  3.929584  0  -0.028062  0  -0.071477  -0.131262  0  3.897156  0
C  C48  1  0.56473897  0.58025724  0.26708887  1  0  -0.113526  0  3.657796  0  0  -0.135688  0  3.911967  0  0  -0.141499  0  3.931448  0  -0.012119  0  -0.071309  -0.131839  0  3.898876  0
C  C49  1  0.93539043  0.31170078  0.73169006  1  0  -0.112498  0  3.656563  0  0  -0.134947  0  3.910066  0  0  -0.140678  0  3.929485  0  -0.028014  0  -0.071448  -0.131154  0  3.897049  0
C  C50  1  0.37906312  0.41080679  0.82616168  1  0  0.033426  0  3.722381  0  0  0.045217  0  3.953376  0  0  0.045883  0  3.974523  0  -0.048269  0  0.012838  0.044898  0  3.938875  0
C  C51  1  0.12098728  0.58575096  0.17450745  1  0  0.032328  0  3.719906  0  0  0.045018  0  3.94958  0  0  0.045631  0  3.970801  0  -0.025454  0  0.012411  0.044737  0  3.935029  0
C  C52  1  0.62093656  0.58919181  0.17383717  1  0  0.033317  0  3.722344  0  0  0.045105  0  3.953394  0  0  0.045769  0  3.974543  0  -0.048269  0  0.012816  0.044787  0  3.938893  0
C  C53  1  0.87901109  0.41424861  0.82549025  1  0  0.032181  0  3.720032  0  0  0.044937  0  3.949632  0  0  0.045545  0  3.970855  0  -0.025195  0  0.012388  0.044654  0  3.93508  0
C  C54  1  0.31164289  0.52527061  0.91829651  1  0  0.403339  0  3.76734  0  0  0.383358  0  4.03024  0  0  0.400395  0  4.041042  0  1.095686  0  0.261436  0.372176  0  4.02262  0
C  C55  1  0.18765427  0.60795071  0.08267569  1  0  0.404681  0  3.765091  0  0  0.384065  0  4.028268  0  0  0.401129  0  4.03909  0  1.104305  0  0.262032  0.37286  0  4.020639  0
C  C56  1  0.68835814  0.47472896  0.08170343  1  0  0.403372  0  3.767342  0  0  0.383403  0  4.030236  0  0  0.400441  0  4.04104  0  1.095666  0  0.261466  0.37222  0  4.022615  0
C  C57  1  0.81234676  0.39204886  0.91732278  1  0  0.404707  0  3.764998  0  0  0.384059  0  4.028189  0  0  0.401125  0  4.03901  0  1.104417  0  0.26204  0.372855  0  4.02056  0
C  C58  1  0.24903553  0.73972633  0.00081305  1  0  0.414612  0  3.72612  0  0  0.396811  0  3.984908  0  0  0.414511  0  3.994922  0  1.071079  0  0.268263  0.385115  0  3.977938  0
C  C59  1  0.75096420  0.26027421  0.99918648  1  0  0.414589  0  3.726106  0  0  0.396819  0  3.984831  0  0  0.414521  0  3.994846  0  1.071092  0  0.268261  0.385118  0  3.977872  0
C  C60  1  0.24905352  0.86966425  0.00083337  1  0  0.019693  0  3.748708  0  0  0.032758  0  3.978351  0  0  0.031446  0  4.001331  0  0.005983  0  0.007235  0.033804  0  3.962563  0
C  C61  1  0.75094619  0.13033531  0.99916582  1  0  0.01967  0  3.748657  0  0  0.032756  0  3.97825  0  0  0.031442  0  4.001231  0  0.005985  0  0.007231  0.033802  0  3.962462  0
C  C62  1  0.23455826  0.98163418  0.09711292  1  0  -0.123664  0  3.683645  0  0  -0.144998  0  3.92508  0  0  -0.150281  0  3.946835  0  -0.026982  0  -0.075824  -0.141397  0  3.910314  0
C  C63  1  0.26422144  0.88390644  0.90449424  1  0  -0.123584  0  3.683207  0  0  -0.144852  0  3.925153  0  0  -0.15017  0  3.947014  0  -0.043705  0  -0.075276  -0.141255  0  3.910348  0
C  C64  1  0.76544013  0.01836636  0.90288732  1  0  -0.123657  0  3.683616  0  0  -0.145001  0  3.92506  0  0  -0.150284  0  3.946816  0  -0.027105  0  -0.07583  -0.141399  0  3.910293  0
C  C65  1  0.73577828  0.11609410  0.09550602  1  0  -0.123504  0  3.683214  0  0  -0.144781  0  3.925136  0  0  -0.150099  0  3.946997  0  -0.043719  0  -0.075241  -0.141185  0  3.910331  0
C  C66  1  0.23985423  0.10171040  0.09267227  1  0  0.114552  0  3.743526  0  0  0.094118  0  4.001087  0  0  0.097718  0  4.020685  0  0.488439  0  0.040364  0.091815  0  3.987615  0
C  C67  1  0.26017457  0.00841989  0.90875786  1  0  0.115308  0  3.741815  0  0  0.094625  0  3.999477  0  0  0.098237  0  4.019041  0  0.520984  0  0.041072  0.092311  0  3.986048  0
C  C68  1  0.76014549  0.89829014  0.90732799  1  0  0.114593  0  3.743439  0  0  0.094151  0  4.001009  0  0  0.097751  0  4.020608  0  0.488638  0  0.040392  0.091848  0  3.987537  0
C  C69  1  0.73982650  0.99158161  0.09124203  1  0  0.115245  0  3.741919  0  0  0.09458  0  3.999572  0  0  0.098191  0  4.019136  0  0.520973  0  0.04107  0.092265  0  3.986143  0
N  N70  1  0.49299877  0.19182369  0.65172763  1  0  -0.333837  0  3.280286  0  0  -0.247862  0  3.536384  0  0  -0.269774  0  3.558192  0  -1.204718  0  -0.331402  -0.232777  0  3.521175  0
N  N71  1  0.00819517  0.54104324  0.34832602  1  0  -0.333168  0  3.269163  0  0  -0.248294  0  3.52562  0  0  -0.270033  0  3.547424  0  -1.233016  0  -0.328656  -0.233305  0  3.510378  0
N  N72  1  0.50700357  0.80817394  0.34827238  1  0  -0.33384  0  3.280267  0  0  -0.247869  0  3.536351  0  0  -0.269783  0  3.558162  0  -1.20475  0  -0.331401  -0.232784  0  3.521139  0
N  N73  1  0.99180189  0.45895729  0.65167273  1  0  -0.333156  0  3.269206  0  0  -0.248288  0  3.525671  0  0  -0.270028  0  3.547476  0  -1.232817  0  -0.328649  -0.2333  0  3.510428  0
N  N74  1  0.24980148  0.50371735  0.00032376  1  0  -0.44278  0  2.994115  0  0  -0.408443  0  3.256584  0  0  -0.425794  0  3.268269  0  -1.196914  0  -0.302175  -0.397011  0  3.248617  0
N  N75  1  0.75019821  0.49628125  0.99967435  1  0  -0.44275  0  2.994071  0  0  -0.408412  0  3.256552  0  0  -0.425763  0  3.268236  0  -1.196999  0  -0.302175  -0.396979  0  3.248584  0
N  N76  1  0.31410482  0.64093242  0.91419813  1  0  -0.427935  0  2.938981  0  0  -0.394765  0  3.195699  0  0  -0.411325  0  3.205856  0  -1.155927  0  -0.2931  -0.383979  0  3.188887  0
N  N77  1  0.18433891  0.72804200  0.08725476  1  0  -0.427545  0  2.934587  0  0  -0.394238  0  3.191213  0  0  -0.410766  0  3.201293  0  -1.168683  0  -0.293263  -0.383473  0  3.184453  0
N  N78  1  0.68589758  0.35906909  0.08580178  1  0  -0.427918  0  2.939027  0  0  -0.394763  0  3.195729  0  0  -0.411324  0  3.205887  0  -1.155947  0  -0.293087  -0.383976  0  3.18892  0
N  N79  1  0.81566211  0.27195660  0.91274410  1  0  -0.427568  0  2.934535  0  0  -0.394273  0  3.191169  0  0  -0.410803  0  3.201249  0  -1.168696  0  -0.293295  -0.383507  0  3.18441  0
N  N80  1  0.25031721  0.11696255  0.00069912  1  0  -0.311051  0  3.046307  0  0  -0.279331  0  3.316652  0  0  -0.288894  0  3.332193  0  -1.195625  0  -0.321908  -0.272545  0  3.305793  0
N  N81  1  0.74968384  0.88303799  0.99930116  1  0  -0.31106  0  3.046311  0  0  -0.279336  0  3.316643  0  0  -0.288899  0  3.332185  0  -1.195793  0  -0.321923  -0.27255  0  3.305785  0
N  N82  1  0.85973791  0.02356349  0.40268494  1  0  0.685669  0  4.161589  0  0  0.710457  0  4.465486  0  0  0.738782  0  4.471831  0  0.816018  0  0.093244  0.691488  0  4.460597  0
N  N83  1  0.63935068  0.62030189  0.59754791  1  0  0.689341  0  4.160225  0  0  0.713195  0  4.46502  0  0  0.741801  0  4.471055  0  0.83955  0  0.094292  0.695676  0  4.460022  0
N  N84  1  0.14026185  0.97643899  0.59731600  1  0  0.68577  0  4.1613  0  0  0.710567  0  4.465185  0  0  0.738899  0  4.471511  0  0.815885  0  0.093248  0.691598  0  4.460298  0
N  N85  1  0.36064769  0.37969768  0.40245271  1  0  0.689381  0  4.160186  0  0  0.713202  0  4.465035  0  0  0.74181  0  4.471069  0  0.839542  0  0.094286  0.695679  0  4.460036  0
O  O86  1  0.33843775  0.06526458  0.37914359  1  0  -0.825396  0  1.901516  0  0  -0.769873  0  2.096853  0  0  -0.791534  0  2.062699  0  -1.255395  0  -0.587052  -0.754317  0  2.120443  0
O  O87  1  0.16108697  0.68612185  0.62155045  1  0  -0.824428  0  1.900724  0  0  -0.7677  0  2.097725  0  0  -0.789619  0  2.063409  0  -1.244772  0  -0.58588  -0.751957  0  2.121399  0
O  O88  1  0.66156728  0.93473499  0.62085935  1  0  -0.825343  0  1.901609  0  0  -0.769798  0  2.096913  0  0  -0.791459  0  2.062764  0  -1.255361  0  -0.586999  -0.754241  0  2.120505  0
O  O89  1  0.83891411  0.31387966  0.37845017  1  0  -0.824378  0  1.900617  0  0  -0.767637  0  2.097665  0  0  -0.789557  0  2.063351  0  -1.244787  0  -0.585884  -0.751894  0  2.121338  0
O  O90  1  0.74072856  0.11255051  0.43474288  1  0  -0.505732  0  1.780015  0  0  -0.473788  0  2.001233  0  0  -0.49389  0  1.993744  0  -0.571043  0  -0.195631  -0.459796  0  2.006198  0
O  O91  1  0.75888374  0.67608234  0.56510033  1  0  -0.506928  0  1.778884  0  0  -0.474894  0  2.001403  0  0  -0.49533  0  1.993712  0  -0.592852  0  -0.19658  -0.461374  0  2.006529  0
O  O92  1  0.25927390  0.88745390  0.56525658  1  0  -0.505856  0  1.779941  0  0  -0.473891  0  2.001098  0  0  -0.494001  0  1.993607  0  -0.570957  0  -0.195667  -0.459894  0  2.006059  0
O  O93  1  0.24111730  0.32391723  0.43490107  1  0  -0.506961  0  1.778891  0  0  -0.474923  0  2.001427  0  0  -0.495356  0  1.993731  0  -0.592885  0  -0.196612  -0.461406  0  2.006553  0
O  O94  1  0.84985019  0.93162756  0.43000757  1  0  -0.453419  0  1.845918  0  0  -0.444013  0  2.07737  0  0  -0.460293  0  2.074368  0  -0.526259  0  -0.171161  -0.432561  0  2.079179  0
O  O95  1  0.64844247  0.50081056  0.57072336  1  0  -0.453359  0  1.843273  0  0  -0.443993  0  2.074382  0  0  -0.460122  0  2.071087  0  -0.530244  0  -0.171052  -0.433343  0  2.076369  0
O  O96  1  0.15014559  0.06837588  0.56999364  1  0  -0.453375  0  1.845725  0  0  -0.444003  0  2.077195  0  0  -0.460282  0  2.074184  0  -0.526256  0  -0.171138  -0.432552  0  2.079003  0
O  O97  1  0.35155590  0.49918900  0.42927727  1  0  -0.453338  0  1.843267  0  0  -0.443965  0  2.074384  0  0  -0.460093  0  2.07109  0  -0.530212  0  -0.171026  -0.433308  0  2.076367  0
O  O98  1  0.98035303  0.03097535  0.34322181  1  0  -0.45392  0  1.778228  0  0  -0.43597  0  1.986163  0  0  -0.449623  0  1.977338  0  -0.54877  0  -0.178586  -0.426501  0  1.992188  0
O  O99  1  0.51916862  0.68879408  0.65688072  1  0  -0.454932  0  1.778382  0  0  -0.436348  0  1.986183  0  0  -0.450043  0  1.977183  0  -0.545927  0  -0.178795  -0.427515  0  1.992262  0
O  O100  1  0.01964934  0.96902421  0.65677962  1  0  -0.453941  0  1.778181  0  0  -0.435983  0  1.986103  0  0  -0.449636  0  1.977273  0  -0.548779  0  -0.178568  -0.426514  0  1.992127  0
O  O101  1  0.48083241  0.31120549  0.34311995  1  0  -0.454974  0  1.778352  0  0  -0.436351  0  1.98614  0  0  -0.450056  0  1.97715  0  -0.545901  0  -0.178785  -0.427518  0  1.99222  0
