# generated using pymatgen
data_AgH6C7N5
_symmetry_space_group_name_H-M   'P 1'
_cell_length_a   6.63807456
_cell_length_b   9.60641177
_cell_length_c   12.53821870
_cell_angle_alpha   106.26859041
_cell_angle_beta   89.99965329
_cell_angle_gamma   90.00007805
_symmetry_Int_Tables_number   1
_chemical_formula_structural   AgH6C7N5
_chemical_formula_sum   'Ag4 H24 C28 N20'
_cell_volume   767.52380499
_cell_formula_units_Z   4
loop_
 _symmetry_equiv_pos_site_id
 _symmetry_equiv_pos_as_xyz
  1  'x, y, z'
loop_
 _atom_site_type_symbol
 _atom_site_label
 _atom_site_symmetry_multiplicity
 _atom_site_fract_x
 _atom_site_fract_y
 _atom_site_fract_z
 _atom_site_occupancy
 _atom_site_hle17_bader_spin_density
 _atom_site_hle17_ddec_charge
 _atom_site_hle17_ddec_spin_density
 _atom_site_hle17_ddec_sum_bond_order
 _atom_site_hle17_magmom
 _atom_site_hse06_10hf_bader_spin_density
 _atom_site_hse06_10hf_ddec_charge
 _atom_site_hse06_10hf_ddec_spin_density
 _atom_site_hse06_10hf_ddec_sum_bond_order
 _atom_site_hse06_10hf_magmom
 _atom_site_hse06_bader_spin_density
 _atom_site_hse06_ddec_charge
 _atom_site_hse06_ddec_spin_density
 _atom_site_hse06_ddec_sum_bond_order
 _atom_site_hse06_magmom
 _atom_site_pbe_bader_spin_density
 _atom_site_pbe_cm5_charge
 _atom_site_pbe_ddec_charge
 _atom_site_pbe_ddec_spin_density
 _atom_site_pbe_ddec_sum_bond_order
 _atom_site_pbe_magmom
Ag  Ag0  1  0.33378553  0.60035217  0.28435814  1  0  0.482976  0  1.496695  0  0  0.334733  0  1.955148  0  0  0.362501  0  1.910757  0  0  0.488781  0.312537  0  1.990317  0
Ag  Ag1  1  0.83378312  0.39964716  0.21564021  1  0  0.482968  0  1.496652  0  0  0.334708  0  1.955107  0  0  0.362483  0  1.910708  0  0  0.488771  0.312508  0  1.990286  0
Ag  Ag2  1  0.66621514  0.39964671  0.71564046  1  0  0.482961  0  1.496657  0  0  0.334692  0  1.95513  0  0  0.362465  0  1.910734  0  0  0.488763  0.312487  0  1.990301  0
Ag  Ag3  1  0.16621453  0.60035498  0.78435909  1  0  0.482969  0  1.496674  0  0  0.334709  0  1.955142  0  0  0.362482  0  1.910747  0  0  0.488771  0.312503  0  1.990312  0
H  H4  1  0.31526046  0.29144192  0.78626943  1  0  0.288281  0  0.966638  0  0  0.262564  0  1.051754  0  0  0.269913  0  1.045669  0  0  0.278384  0.257191  0  1.055935  0
H  H5  1  0.81526017  0.70855865  0.71373020  1  0  0.288353  0  0.966639  0  0  0.262633  0  1.051775  0  0  0.269983  0  1.04569  0  0  0.278418  0.257259  0  1.055955  0
H  H6  1  0.68474021  0.70855913  0.21373044  1  0  0.288291  0  0.966638  0  0  0.262576  0  1.051767  0  0  0.269925  0  1.045681  0  0  0.278373  0.257203  0  1.055948  0
H  H7  1  0.18473748  0.29144457  0.28626854  1  0  0.288328  0  0.966586  0  0  0.262595  0  1.051717  0  0  0.269944  0  1.04563  0  0  0.278397  0.257222  0  1.055898  0
H  H8  1  0.27304114  0.30197141  0.65370507  1  0  0.278653  0  0.979321  0  0  0.254719  0  1.06386  0  0  0.261921  0  1.057346  0  0  0.277385  0.249688  0  1.067662  0
H  H9  1  0.77303934  0.69802917  0.84629470  1  0  0.278662  0  0.979327  0  0  0.254735  0  1.063865  0  0  0.261932  0  1.05736  0  0  0.277389  0.249703  0  1.067665  0
H  H10  1  0.72696103  0.69802964  0.34629560  1  0  0.278698  0  0.979272  0  0  0.254747  0  1.063842  0  0  0.261948  0  1.057329  0  0  0.277386  0.249716  0  1.067644  0
H  H11  1  0.22695680  0.30197079  0.15370494  1  0  0.278637  0  0.979351  0  0  0.25471  0  1.06389  0  0  0.261907  0  1.057387  0  0  0.277399  0.24968  0  1.06769  0
H  H12  1  0.18485619  0.83646613  0.43316791  1  0  0.076912  0  0.97718  0  0  0.089055  0  1.046332  0  0  0.091962  0  1.043191  0  0  0.091315  0.087267  0  1.048381  0
H  H13  1  0.68485952  0.16353324  0.06683174  1  0  0.076878  0  0.97717  0  0  0.089021  0  1.046321  0  0  0.091927  0  1.04318  0  0  0.091307  0.087231  0  1.048373  0
H  H14  1  0.81513996  0.16353492  0.56683276  1  0  0.076921  0  0.977165  0  0  0.089051  0  1.046327  0  0  0.091957  0  1.043188  0  0  0.091313  0.087262  0  1.048373  0
H  H15  1  0.31514114  0.83646239  0.93316856  1  0  0.076824  0  0.977189  0  0  0.089002  0  1.046311  0  0  0.091908  0  1.043173  0  0  0.091283  0.087212  0  1.048358  0
H  H16  1  0.43070883  0.79310126  0.74048507  1  0  0.075411  0  0.981292  0  0  0.087054  0  1.050878  0  0  0.090265  0  1.047109  0  0  0.090439  0.084558  0  1.054222  0
H  H17  1  0.93070857  0.20689711  0.75951211  1  0  0.075407  0  0.981337  0  0  0.087037  0  1.050928  0  0  0.090247  0  1.047161  0  0  0.090459  0.084545  0  1.054269  0
H  H18  1  0.56929183  0.20689763  0.25951274  1  0  0.075407  0  0.981323  0  0  0.087029  0  1.050925  0  0  0.09024  0  1.047157  0  0  0.090444  0.084539  0  1.054265  0
H  H19  1  0.06929661  0.79310611  0.24049300  1  0  0.075445  0  0.981314  0  0  0.087098  0  1.050868  0  0  0.090308  0  1.047101  0  0  0.090486  0.084594  0  1.054225  0
H  H20  1  0.45679360  0.05961348  0.81187373  1  0  0.103331  0  0.965969  0  0  0.115554  0  1.023731  0  0  0.117391  0  1.025394  0  0  0.100882  0.114154  0  1.02289  0
H  H21  1  0.95679104  0.94038489  0.68812416  1  0  0.103373  0  0.965926  0  0  0.115565  0  1.023733  0  0  0.117423  0  1.025374  0  0  0.100885  0.114163  0  1.022893  0
H  H22  1  0.54320857  0.94038432  0.18812544  1  0  0.103381  0  0.965925  0  0  0.115571  0  1.023737  0  0  0.117429  0  1.025378  0  0  0.100894  0.11417  0  1.022897  0
H  H23  1  0.04320962  0.05961725  0.31187833  1  0  0.103387  0  0.965885  0  0  0.115587  0  1.023683  0  0  0.117444  0  1.025323  0  0  0.100894  0.114189  0  1.022845  0
H  H24  1  0.22243526  0.10252194  0.50201017  1  0  0.108703  0  0.947554  0  0  0.119134  0  1.007631  0  0  0.12221  0  1.006954  0  0  0.104317  0.117893  0  1.00642  0
H  H25  1  0.72243665  0.89747865  0.99798896  1  0  0.108684  0  0.947674  0  0  0.11913  0  1.007733  0  0  0.122207  0  1.007055  0  0  0.104325  0.117888  0  1.006521  0
H  H26  1  0.77756389  0.89747911  0.49799129  1  0  0.108679  0  0.947583  0  0  0.119109  0  1.00766  0  0  0.122186  0  1.006984  0  0  0.104313  0.117868  0  1.006447  0
H  H27  1  0.27756250  0.10252023  0.00200805  1  0  0.108693  0  0.947576  0  0  0.11912  0  1.007658  0  0  0.122198  0  1.00698  0  0  0.104313  0.117878  0  1.006444  0
C  C28  1  0.33643428  0.09953511  0.66281832  1  0  0.311713  0  3.800901  0  0  0.312476  0  4.030953  0  0  0.321439  0  4.053566  0  0  0.095655  0.306319  0  4.015106  0
C  C29  1  0.83643749  0.90046545  0.83718044  1  0  0.311643  0  3.801081  0  0  0.312418  0  4.031125  0  0  0.321379  0  4.053741  0  0  0.095644  0.306262  0  4.015274  0
C  C30  1  0.66356337  0.90046486  0.33718211  1  0  0.311678  0  3.800999  0  0  0.312463  0  4.031021  0  0  0.321426  0  4.053639  0  0  0.095685  0.306306  0  4.015174  0
C  C31  1  0.16356468  0.09953234  0.16281873  1  0  0.311742  0  3.800971  0  0  0.312523  0  4.031001  0  0  0.321485  0  4.053616  0  0  0.09569  0.306365  0  4.015155  0
C  C32  1  0.27388269  0.63877705  0.54456461  1  0  0.292651  0  3.801463  0  0  0.259977  0  4.067032  0  0  0.272472  0  4.086356  0  0  0.216636  0.250929  0  4.054033  0
C  C33  1  0.77388503  0.36122245  0.95543571  1  0  0.292668  0  3.801378  0  0  0.259973  0  4.06696  0  0  0.272467  0  4.086286  0  0  0.216656  0.250926  0  4.053963  0
C  C34  1  0.72611346  0.36122292  0.45543582  1  0  0.292664  0  3.801386  0  0  0.259956  0  4.067  0  0  0.272451  0  4.086322  0  0  0.216653  0.250907  0  4.054004  0
C  C35  1  0.22611563  0.63877860  0.04456814  1  0  0.292553  0  3.801574  0  0  0.259851  0  4.067121  0  0  0.272344  0  4.086446  0  0  0.216549  0.250804  0  4.054123  0
C  C36  1  0.24756974  0.88460033  0.51570087  1  0  -0.071403  0  3.773665  0  0  -0.093581  0  4.022948  0  0  -0.092277  0  4.04243  0  0  -0.089319  -0.094935  0  4.009375  0
C  C37  1  0.74757278  0.11540351  0.98430048  1  0  -0.071248  0  3.773281  0  0  -0.093425  0  4.022553  0  0  -0.092127  0  4.042045  0  0  -0.089277  -0.094778  0  4.008981  0
C  C38  1  0.75242641  0.11540181  0.48430083  1  0  -0.071386  0  3.773454  0  0  -0.093556  0  4.022727  0  0  -0.092258  0  4.042221  0  0  -0.089301  -0.094905  0  4.009147  0
C  C39  1  0.25242939  0.88459863  0.01570441  1  0  -0.071317  0  3.773601  0  0  -0.093549  0  4.022837  0  0  -0.092255  0  4.042332  0  0  -0.089321  -0.094897  0  4.009255  0
C  C40  1  0.37983450  0.86097553  0.68905266  1  0  -0.077689  0  3.776289  0  0  -0.100552  0  4.025929  0  0  -0.099436  0  4.045263  0  0  -0.092048  -0.100874  0  4.01287  0
C  C41  1  0.87983503  0.13902393  0.81094731  1  0  -0.077599  0  3.776372  0  0  -0.100448  0  4.025973  0  0  -0.099333  0  4.045313  0  0  -0.092006  -0.100771  0  4.012915  0
C  C42  1  0.62016315  0.13902443  0.31094777  1  0  -0.077607  0  3.776373  0  0  -0.100458  0  4.025995  0  0  -0.099343  0  4.045335  0  0  -0.091991  -0.100783  0  4.012938  0
C  C43  1  0.12016714  0.86097820  0.18905837  1  0  -0.077634  0  3.77609  0  0  -0.100539  0  4.025699  0  0  -0.099427  0  4.045035  0  0  -0.092046  -0.100856  0  4.012659  0
C  C44  1  0.39616047  0.01043283  0.72910203  1  0  -0.171389  0  3.721233  0  0  -0.182592  0  3.959193  0  0  -0.189471  0  3.982861  0  0  -0.099552  -0.178465  0  3.943743  0
C  C45  1  0.89616461  0.98956446  0.77089663  1  0  -0.171381  0  3.721252  0  0  -0.182575  0  3.959209  0  0  -0.189475  0  3.982878  0  0  -0.099525  -0.178448  0  3.94376  0
C  C46  1  0.60383266  0.98956497  0.27089714  1  0  -0.171407  0  3.721241  0  0  -0.1826  0  3.959186  0  0  -0.189499  0  3.982852  0  0  -0.099549  -0.178471  0  3.943739  0
C  C47  1  0.10384058  0.01043659  0.22910404  1  0  -0.171458  0  3.72133  0  0  -0.182669  0  3.959321  0  0  -0.189564  0  3.982983  0  0  -0.099529  -0.178543  0  3.943874  0
C  C48  1  0.26588726  0.03420026  0.55450232  1  0  -0.177662  0  3.721568  0  0  -0.189656  0  3.96307  0  0  -0.196919  0  3.986176  0  0  -0.099845  -0.184372  0  3.946509  0
C  C49  1  0.76588787  0.96579273  0.94549584  1  0  -0.177651  0  3.721452  0  0  -0.189687  0  3.962999  0  0  -0.196947  0  3.986097  0  0  -0.099857  -0.184402  0  3.946435  0
C  C50  1  0.73411190  0.96579645  0.44549741  1  0  -0.177611  0  3.721475  0  0  -0.189617  0  3.962993  0  0  -0.196878  0  3.986096  0  0  -0.099843  -0.184331  0  3.946427  0
C  C51  1  0.23411129  0.03420073  0.05450161  1  0  -0.177658  0  3.721532  0  0  -0.189661  0  3.963053  0  0  -0.196924  0  3.986155  0  0  -0.09984  -0.184374  0  3.946485  0
C  C52  1  0.30215136  0.79499947  0.58247186  1  0  -0.035626  0  3.830788  0  0  -0.021563  0  4.073203  0  0  -0.025581  0  4.096124  0  0  -0.025875  -0.017735  0  4.056498  0
C  C53  1  0.80215684  0.20499893  0.91752495  1  0  -0.035759  0  3.830979  0  0  -0.021671  0  4.07338  0  0  -0.025689  0  4.096299  0  0  -0.025957  -0.017848  0  4.056682  0
C  C54  1  0.69784327  0.20499941  0.41752674  1  0  -0.035707  0  3.830906  0  0  -0.021612  0  4.073303  0  0  -0.02563  0  4.096222  0  0  -0.025955  -0.017786  0  4.056603  0
C  C55  1  0.19784834  0.79499995  0.08247366  1  0  -0.035634  0  3.83073  0  0  -0.021451  0  4.072993  0  0  -0.025459  0  4.095897  0  0  -0.025879  -0.017625  0  4.056292  0
N  N56  1  0.28242333  0.55457418  0.43873240  1  0  -0.308412  0  3.264513  0  0  -0.238389  0  3.578413  0  0  -0.257343  0  3.592697  0  0  -0.266706  -0.226289  0  3.570012  0
N  N57  1  0.78242275  0.44542841  0.06126682  1  0  -0.30835  0  3.264488  0  0  -0.238315  0  3.578372  0  0  -0.257267  0  3.592657  0  0  -0.266678  -0.226215  0  3.569971  0
N  N58  1  0.71757733  0.44542795  0.56126690  1  0  -0.308377  0  3.264385  0  0  -0.238346  0  3.57829  0  0  -0.257299  0  3.592574  0  0  -0.266694  -0.226243  0  3.569881  0
N  N59  1  0.21757640  0.55457589  0.93873374  1  0  -0.308311  0  3.264544  0  0  -0.238307  0  3.578455  0  0  -0.257262  0  3.592742  0  0  -0.26664  -0.226204  0  3.570047  0
N  N60  1  0.22976552  0.55354776  0.61050015  1  0  -0.326512  0  3.287818  0  0  -0.254279  0  3.599084  0  0  -0.273221  0  3.61274  0  0  -0.268106  -0.240349  0  3.590617  0
N  N61  1  0.72976576  0.44645174  0.88949872  1  0  -0.326514  0  3.287748  0  0  -0.254281  0  3.599035  0  0  -0.273223  0  3.612692  0  0  -0.268118  -0.24035  0  3.590567  0
N  N62  1  0.77023363  0.44645112  0.38949925  1  0  -0.326507  0  3.287768  0  0  -0.254265  0  3.599038  0  0  -0.273207  0  3.612695  0  0  -0.268114  -0.240337  0  3.59058  0
N  N63  1  0.27023339  0.55354497  0.11050021  1  0  -0.326537  0  3.287963  0  0  -0.254317  0  3.599241  0  0  -0.273258  0  3.612895  0  0  -0.268138  -0.240389  0  3.590782  0
N  N64  1  0.34859736  0.25025455  0.70306846  1  0  -0.673204  0  3.216252  0  0  -0.614424  0  3.460857  0  0  -0.635132  0  3.457666  0  0  -0.612393  -0.597694  0  3.461445  0
N  N65  1  0.84859622  0.74974384  0.79693139  1  0  -0.673302  0  3.216317  0  0  -0.614513  0  3.460848  0  0  -0.63522  0  3.457662  0  0  -0.612456  -0.597783  0  3.461435  0
N  N66  1  0.65140180  0.74974433  0.29693174  1  0  -0.67326  0  3.216201  0  0  -0.614484  0  3.460802  0  0  -0.635193  0  3.457614  0  0  -0.612405  -0.597752  0  3.46139  0
N  N67  1  0.15140294  0.25025721  0.20306768  1  0  -0.673259  0  3.216188  0  0  -0.614454  0  3.460772  0  0  -0.635161  0  3.457587  0  0  -0.612447  -0.597724  0  3.46136  0
N  N68  1  0.21159182  0.41664380  0.54374486  1  0  -0.093337  0  3.02156  0  0  -0.0769  0  3.310507  0  0  -0.077065  0  3.323649  0  0  -0.097675  -0.076289  0  3.299877  0
N  N69  1  0.71159007  0.58335571  0.95625328  1  0  -0.093417  0  3.021594  0  0  -0.076989  0  3.310554  0  0  -0.077151  0  3.323697  0  0  -0.097708  -0.076377  0  3.299923  0
N  N70  1  0.78841034  0.58335617  0.45625398  1  0  -0.093452  0  3.021637  0  0  -0.077019  0  3.310592  0  0  -0.077183  0  3.323735  0  0  -0.097718  -0.07641  0  3.299964  0
N  N71  1  0.28840909  0.41664208  0.04374350  1  0  -0.093406  0  3.021563  0  0  -0.076981  0  3.31052  0  0  -0.077144  0  3.32366  0  0  -0.097716  -0.076371  0  3.299892  0
N  N72  1  0.24254264  0.41721813  0.44098572  1  0  -0.083418  0  3.012775  0  0  -0.063329  0  3.298092  0  0  -0.063629  0  3.31193  0  0  -0.092274  -0.063531  0  3.288737  0
N  N73  1  0.74254236  0.58278231  0.05901317  1  0  -0.083408  0  3.012772  0  0  -0.063311  0  3.298092  0  0  -0.063612  0  3.311931  0  0  -0.09228  -0.063513  0  3.288737  0
N  N74  1  0.75745952  0.58278292  0.55901335  1  0  -0.083357  0  3.012703  0  0  -0.063255  0  3.298022  0  0  -0.063556  0  3.311862  0  0  -0.09225  -0.063454  0  3.28866  0
N  N75  1  0.25745680  0.41721983  0.94098534  1  0  -0.083355  0  3.012819  0  0  -0.063252  0  3.298122  0  0  -0.063552  0  3.31196  0  0  -0.092223  -0.063451  0  3.288761  0
