# generated using pymatgen
data_Li2H14C14N2O5
_symmetry_space_group_name_H-M   'P 1'
_cell_length_a   5.20620404
_cell_length_b   8.90722172
_cell_length_c   15.30457710
_cell_angle_alpha   74.69082401
_cell_angle_beta   87.52939764
_cell_angle_gamma   85.13003059
_symmetry_Int_Tables_number   1
_chemical_formula_structural   Li2H14C14N2O5
_chemical_formula_sum   'Li4 H28 C28 N4 O10'
_cell_volume   681.90279602
_cell_formula_units_Z   2
loop_
 _symmetry_equiv_pos_site_id
 _symmetry_equiv_pos_as_xyz
  1  'x, y, z'
loop_
 _atom_site_type_symbol
 _atom_site_label
 _atom_site_symmetry_multiplicity
 _atom_site_fract_x
 _atom_site_fract_y
 _atom_site_fract_z
 _atom_site_occupancy
 _atom_site_hle17_bader_spin_density
 _atom_site_hle17_ddec_charge
 _atom_site_hle17_ddec_spin_density
 _atom_site_hle17_ddec_sum_bond_order
 _atom_site_hle17_magmom
 _atom_site_hse06_10hf_bader_spin_density
 _atom_site_hse06_10hf_ddec_charge
 _atom_site_hse06_10hf_ddec_spin_density
 _atom_site_hse06_10hf_ddec_sum_bond_order
 _atom_site_hse06_10hf_magmom
 _atom_site_hse06_bader_spin_density
 _atom_site_hse06_ddec_charge
 _atom_site_hse06_ddec_spin_density
 _atom_site_hse06_ddec_sum_bond_order
 _atom_site_hse06_magmom
 _atom_site_pbe_bader_spin_density
 _atom_site_pbe_cm5_charge
 _atom_site_pbe_ddec_charge
 _atom_site_pbe_ddec_spin_density
 _atom_site_pbe_ddec_sum_bond_order
 _atom_site_pbe_magmom
Li  Li0  1  0.40422015  0.88343553  0.45477365  1  0  0.870036  0  0.3838  0  0  0.833292  0  0.483874  0  0  0.842488  0  0.466983  0  0  0.525526  0.826393  0  0.496373  0
Li  Li1  1  0.59574959  0.11655052  0.54523345  1  0  0.870042  0  0.383799  0  0  0.83333  0  0.483852  0  0  0.842505  0  0.466971  0  0  0.525629  0.826434  0  0.496344  0
Li  Li2  1  0.95273211  0.77709228  0.53701130  1  0  0.865021  0  0.392629  0  0  0.832467  0  0.4865  0  0  0.840791  0  0.470617  0  0  0.529219  0.826486  0  0.497896  0
Li  Li3  1  0.04721013  0.22289725  0.46298788  1  0  0.865017  0  0.392541  0  0  0.832456  0  0.486412  0  0  0.840786  0  0.470522  0  0  0.529206  0.826471  0  0.49781  0
H  H4  1  0.08340655  0.76988696  0.01303917  1  0  0.079836  0  0.977036  0  0  0.09119  0  1.041495  0  0  0.093454  0  1.040494  0  0  0.09525  0.089574  0  1.042205  0
H  H5  1  0.91661922  0.23011091  0.98695998  1  0  0.079822  0  0.977121  0  0  0.091218  0  1.041516  0  0  0.093484  0  1.040519  0  0  0.095232  0.089602  0  1.042224  0
H  H6  1  0.18534587  0.08582529  0.28557322  1  0  0.10144  0  0.960771  0  0  0.109669  0  1.026045  0  0  0.112542  0  1.023884  0  0  0.115768  0.107556  0  1.027556  0
H  H7  1  0.81464725  0.91417251  0.71442778  1  0  0.101428  0  0.960839  0  0  0.109685  0  1.02608  0  0  0.112559  0  1.023914  0  0  0.115784  0.107572  0  1.027593  0
H  H8  1  0.63360145  0.95065592  0.21073857  1  0  0.091477  0  0.985994  0  0  0.100387  0  1.051595  0  0  0.102013  0  1.052479  0  0  0.100936  0.099486  0  1.050179  0
H  H9  1  0.36638238  0.04936646  0.78924055  1  0  0.091454  0  0.985759  0  0  0.10032  0  1.051458  0  0  0.101964  0  1.052305  0  0  0.100874  0.099435  0  1.050002  0
H  H10  1  0.39637548  0.63768236  0.13155752  1  0  0.090604  0  0.992173  0  0  0.09937  0  1.059924  0  0  0.101863  0  1.06004  0  0  0.094745  0.097828  0  1.059521  0
H  H11  1  0.60361811  0.36231305  0.86845364  1  0  0.090597  0  0.992134  0  0  0.099354  0  1.059869  0  0  0.101834  0  1.060022  0  0  0.094722  0.09781  0  1.059468  0
H  H12  1  0.43035251  0.30892948  0.01344346  1  0  0.077664  0  0.973422  0  0  0.090657  0  1.035417  0  0  0.092775  0  1.034326  0  0  0.095988  0.088928  0  1.036517  0
H  H13  1  0.56964342  0.69106132  0.98655660  1  0  0.077533  0  0.973529  0  0  0.090572  0  1.035481  0  0  0.09267  0  1.034408  0  0  0.095957  0.088843  0  1.036582  0
H  H14  1  0.69953679  0.93290577  0.05205989  1  0  0.087124  0  0.958149  0  0  0.100551  0  1.016941  0  0  0.102994  0  1.017076  0  0  0.096065  0.09864  0  1.017377  0
H  H15  1  0.30047269  0.06709682  0.94791985  1  0  0.087245  0  0.958153  0  0  0.100659  0  1.016955  0  0  0.1031  0  1.017096  0  0  0.096121  0.098743  0  1.0174  0
H  H16  1  0.75410105  0.44083587  0.07415669  1  0  0.092851  0  0.957662  0  0  0.106248  0  1.016171  0  0  0.10926  0  1.015453  0  0  0.097501  0.103743  0  1.017601  0
H  H17  1  0.24589361  0.55916428  0.92583870  1  0  0.092867  0  0.957689  0  0  0.106269  0  1.016186  0  0  0.109308  0  1.01544  0  0  0.097511  0.103764  0  1.017617  0
H  H18  1  0.13721086  0.13148525  0.11967798  1  0  0.087639  0  0.981462  0  0  0.097562  0  1.046536  0  0  0.099347  0  1.048561  0  0  0.093756  0.096381  0  1.04505  0
H  H19  1  0.86278107  0.86850671  0.88032197  1  0  0.087588  0  0.98157  0  0  0.097548  0  1.046593  0  0  0.099332  0  1.048621  0  0  0.093752  0.096366  0  1.045109  0
H  H20  1  0.53509756  0.59185559  0.27401642  1  0  0.288508  0  0.94126  0  0  0.273139  0  1.007308  0  0  0.278982  0  1.004047  0  0  0.285081  0.269281  0  1.008973  0
H  H21  1  0.46481052  0.40811858  0.72600788  1  0  0.288334  0  0.941147  0  0  0.272928  0  1.007225  0  0  0.278775  0  1.003962  0  0  0.285025  0.269074  0  1.008884  0
H  H22  1  0.44815733  0.71376576  0.33826138  1  0  0.31948  0  0.936517  0  0  0.302212  0  1.001988  0  0  0.310224  0  0.994549  0  0  0.298673  0.296505  0  1.007311  0
H  H23  1  0.55175483  0.28622013  0.66175192  1  0  0.319513  0  0.936421  0  0  0.302177  0  1.002033  0  0  0.310191  0  0.994598  0  0  0.298609  0.296456  0  1.007391  0
H  H24  1  0.86774891  0.38222915  0.31196530  1  0  0.325236  0  0.923333  0  0  0.309433  0  0.984057  0  0  0.316948  0  0.977675  0  0  0.30787  0.303992  0  0.988809  0
H  H25  1  0.13222777  0.61774646  0.68803021  1  0  0.325299  0  0.923275  0  0  0.309462  0  0.984055  0  0  0.316977  0  0.977666  0  0  0.307846  0.30402  0  0.988813  0
H  H26  1  0.95802215  0.47733502  0.20245239  1  0  0.304244  0  0.915881  0  0  0.293263  0  0.974723  0  0  0.297701  0  0.973585  0  0  0.297687  0.290108  0  0.975649  0
H  H27  1  0.04197717  0.52265929  0.79754708  1  0  0.304272  0  0.915992  0  0  0.29329  0  0.974808  0  0  0.297728  0  0.973671  0  0  0.297705  0.290135  0  0.975733  0
H  H28  1  0.76283662  0.48972942  0.61482049  1  0  0.403069  0  0.911884  0  0  0.368481  0  0.981212  0  0  0.378398  0  0.96749  0  0  0.285786  0.361588  0  0.9907  0
H  H29  1  0.23697828  0.51032173  0.38517008  1  0  0.402962  0  0.911995  0  0  0.368305  0  0.981428  0  0  0.37822  0  0.967712  0  0  0.285816  0.36141  0  0.990917  0
H  H30  1  0.82565245  0.53434290  0.50905915  1  0  0.423078  0  0.843124  0  0  0.404026  0  0.903145  0  0  0.413086  0  0.889977  0  0  0.325336  0.397542  0  0.911338  0
H  H31  1  0.17564278  0.46527455  0.49100388  1  0  0.423001  0  0.842836  0  0  0.404079  0  0.902599  0  0  0.413113  0  0.889714  0  0  0.325614  0.397616  0  0.91075  0
C  C32  1  0.19931159  0.72261669  0.23753124  1  0  0.297964  0  3.760685  0  0  0.287131  0  4.004228  0  0  0.298128  0  4.023805  0  0  0.102413  0.279759  0  3.990559  0
C  C33  1  0.80062824  0.27737747  0.76247511  1  0  0.298138  0  3.760993  0  0  0.287147  0  4.004697  0  0  0.298194  0  4.024229  0  0  0.102378  0.279756  0  3.991036  0
C  C34  1  0.91462257  0.82155048  0.35510287  1  0  0.721301  0  3.869202  0  0  0.674406  0  4.164425  0  0  0.708287  0  4.15342  0  0  0.232432  0.651456  0  4.171468  0
C  C35  1  0.08531957  0.17849747  0.64488153  1  0  0.72187  0  3.868792  0  0  0.675144  0  4.163764  0  0  0.709022  0  4.152737  0  0  0.232809  0.652187  0  4.170822  0
C  C36  1  0.05103775  0.78117094  0.08199486  1  0  -0.056481  0  3.816036  0  0  -0.071277  0  4.065094  0  0  -0.068947  0  4.08448  0  0  -0.095178  -0.07256  0  4.052048  0
C  C37  1  0.94896545  0.21883741  0.91800045  1  0  -0.056671  0  3.816077  0  0  -0.071508  0  4.06516  0  0  -0.069177  0  4.084534  0  0  -0.095255  -0.072791  0  4.052114  0
C  C38  1  0.97844491  0.81047121  0.26023119  1  0  -0.182895  0  3.683695  0  0  -0.161825  0  3.917762  0  0  -0.173075  0  3.938802  0  0  -0.021721  -0.154623  0  3.90311  0
C  C39  1  0.02151372  0.18953939  0.73976058  1  0  -0.183073  0  3.683893  0  0  -0.162137  0  3.918162  0  0  -0.173398  0  3.939191  0  0  -0.021684  -0.154927  0  3.903514  0
C  C40  1  0.30723287  0.16436688  0.23821187  1  0  -0.030277  0  3.749872  0  0  -0.059025  0  4.005939  0  0  -0.052754  0  4.022573  0  0  -0.074099  -0.062703  0  3.994357  0
C  C41  1  0.69275356  0.83563790  0.76178818  1  0  -0.030315  0  3.749915  0  0  -0.059091  0  4.005981  0  0  -0.052819  0  4.022617  0  0  -0.074162  -0.062784  0  3.994388  0
C  C42  1  0.52307343  0.18917813  0.37450669  1  0  0.723343  0  3.893724  0  0  0.674709  0  4.18915  0  0  0.709519  0  4.177214  0  0  0.231831  0.650841  0  4.197322  0
C  C43  1  0.47688957  0.81084412  0.62549174  1  0  0.723679  0  3.893351  0  0  0.674707  0  4.189258  0  0  0.709551  0  4.177287  0  0  0.231878  0.650826  0  4.19742  0
C  C44  1  0.49402220  0.23426456  0.27462443  1  0  -0.209972  0  3.691852  0  0  -0.186664  0  3.924944  0  0  -0.201039  0  3.94737  0  0  -0.025226  -0.177246  0  3.909195  0
C  C45  1  0.50595429  0.76574255  0.72537347  1  0  -0.209976  0  3.691482  0  0  -0.186533  0  3.924583  0  0  -0.200928  0  3.947019  0  0  -0.025217  -0.177057  0  3.908762  0
C  C46  1  0.80203712  0.88350617  0.19225491  1  0  -0.047844  0  3.759062  0  0  -0.072611  0  4.00912  0  0  -0.069267  0  4.029353  0  0  -0.084052  -0.073796  0  3.99352  0
C  C47  1  0.19793204  0.11651148  0.80773105  1  0  -0.047769  0  3.758961  0  0  -0.072453  0  4.009041  0  0  -0.069108  0  4.029282  0  0  -0.084015  -0.073634  0  3.993441  0
C  C48  1  0.22815876  0.70729721  0.14827796  1  0  -0.210519  0  3.768673  0  0  -0.224104  0  4.017788  0  0  -0.230795  0  4.03814  0  0  -0.111571  -0.219517  0  4.003561  0
C  C49  1  0.77182761  0.29270872  0.85172780  1  0  -0.210289  0  3.76854  0  0  -0.223773  0  4.017655  0  0  -0.230482  0  4.037988  0  0  -0.111415  -0.219182  0  4.003434  0
C  C50  1  0.44466922  0.28944544  0.08652821  1  0  -0.041793  0  3.809631  0  0  -0.057016  0  4.056191  0  0  -0.053372  0  4.076031  0  0  -0.092101  -0.058765  0  4.042893  0
C  C51  1  0.55531951  0.71055587  0.91346711  1  0  -0.041667  0  3.809824  0  0  -0.056922  0  4.056391  0  0  -0.053262  0  4.076247  0  0  -0.092075  -0.058674  0  4.043094  0
C  C52  1  0.83733758  0.87192547  0.10356255  1  0  -0.113141  0  3.806962  0  0  -0.128779  0  4.064523  0  0  -0.134399  0  4.086662  0  0  -0.110201  -0.125285  0  4.049569  0
C  C53  1  0.16267117  0.12808407  0.89642791  1  0  -0.113332  0  3.806727  0  0  -0.128961  0  4.064309  0  0  -0.134585  0  4.086447  0  0  -0.110274  -0.125466  0  4.049362  0
C  C54  1  0.62724116  0.36317199  0.12029190  1  0  -0.217732  0  3.761329  0  0  -0.230103  0  4.011607  0  0  -0.238912  0  4.032502  0  0  -0.111215  -0.224978  0  3.99782  0
C  C55  1  0.37275221  0.63682349  0.87970553  1  0  -0.217785  0  3.761605  0  0  -0.230177  0  4.01188  0  0  -0.239006  0  4.032761  0  0  -0.111241  -0.225051  0  3.9981  0
C  C56  1  0.65428588  0.33947575  0.21455306  1  0  0.320309  0  3.808703  0  0  0.307105  0  4.054559  0  0  0.320509  0  4.074054  0  0  0.111724  0.298688  0  4.040372  0
C  C57  1  0.34569578  0.66052088  0.78544308  1  0  0.32012  0  3.808886  0  0  0.306935  0  4.054717  0  0  0.320339  0  4.074216  0  0  0.111574  0.298498  0  4.040537  0
C  C58  1  0.28066655  0.19013895  0.14538872  1  0  -0.128353  0  3.803464  0  0  -0.142917  0  4.060529  0  0  -0.150395  0  4.08344  0  0  -0.114979  -0.138367  0  4.04543  0
C  C59  1  0.71933023  0.80986003  0.85461009  1  0  -0.128282  0  3.803585  0  0  -0.142868  0  4.060663  0  0  -0.150346  0  4.083568  0  0  -0.114941  -0.138324  0  4.04558  0
N  N60  1  0.38018489  0.64295418  0.30225122  1  0  -0.661548  0  3.125  0  0  -0.611343  0  3.335622  0  0  -0.630819  0  3.333886  0  0  -0.590604  -0.597361  0  3.336045  0
N  N61  1  0.61972363  0.35701649  0.69777230  1  0  -0.661563  0  3.124739  0  0  -0.611219  0  3.335365  0  0  -0.630734  0  3.33364  0  0  -0.590591  -0.597216  0  3.335772  0
N  N62  1  0.81904866  0.42523833  0.24576518  1  0  -0.652832  0  3.146469  0  0  -0.613395  0  3.369414  0  0  -0.633685  0  3.371355  0  0  -0.584821  -0.599781  0  3.367844  0
N  N63  1  0.18092587  0.57476879  0.75423079  1  0  -0.65281  0  3.146774  0  0  -0.613354  0  3.369716  0  0  -0.633645  0  3.371659  0  0  -0.584733  -0.599741  0  3.36815  0
O  O64  1  0.09528977  0.81824997  0.40963409  1  0  -0.779404  0  1.967503  0  0  -0.73588  0  2.213091  0  0  -0.755605  0  2.196961  0  0  -0.424362  -0.722333  0  2.224254  0
O  O65  1  0.90463436  0.18178971  0.59036035  1  0  -0.779739  0  1.967679  0  0  -0.736319  0  2.213319  0  0  -0.756027  0  2.197185  0  0  -0.42463  -0.722767  0  2.224491  0
O  O66  1  0.34855010  0.11192182  0.42463417  1  0  -0.853375  0  2.026195  0  0  -0.814741  0  2.282759  0  0  -0.832813  0  2.263493  0  0  -0.462399  -0.802264  0  2.296308  0
O  O67  1  0.65141657  0.88810273  0.57537234  1  0  -0.853435  0  2.026166  0  0  -0.814663  0  2.282845  0  0  -0.832753  0  2.263578  0  0  -0.462479  -0.802179  0  2.296388  0
O  O68  1  0.67714453  0.83136810  0.37807730  1  0  -0.733556  0  1.987356  0  0  -0.686705  0  2.227282  0  0  -0.708375  0  2.214007  0  0  -0.378831  -0.671477  0  2.235665  0
O  O69  1  0.32279057  0.16874532  0.62187567  1  0  -0.733902  0  1.987262  0  0  -0.687031  0  2.22708  0  0  -0.708739  0  2.213902  0  0  -0.379061  -0.67183  0  2.235546  0
O  O70  1  0.71926962  0.22450604  0.40991985  1  0  -0.752648  0  1.957867  0  0  -0.705682  0  2.193816  0  0  -0.725206  0  2.177583  0  0  -0.401078  -0.692259  0  2.205091  0
O  O71  1  0.28068377  0.77554538  0.59007494  1  0  -0.75282  0  1.957994  0  0  -0.70572  0  2.194092  0  0  -0.725266  0  2.177853  0  0  -0.401047  -0.692297  0  2.205372  0
O  O72  1  0.85929152  0.56359149  0.56434745  1  0  -0.897868  0  1.819942  0  0  -0.853392  0  2.001476  0  0  -0.86993  0  1.971337  0  0  -0.641444  -0.841649  0  2.021363  0
O  O73  1  0.14055345  0.43650146  0.43569899  1  0  -0.897338  0  1.820669  0  0  -0.852696  0  2.002065  0  0  -0.869299  0  1.97227  0  0  -0.640927  -0.840909  0  2.021859  0
