# generated using pymatgen
data_NdH14C14N3O9F4
_symmetry_space_group_name_H-M   'P 1'
_cell_length_a   11.52077624
_cell_length_b   12.44852264
_cell_length_c   20.36629739
_cell_angle_alpha   91.52574333
_cell_angle_beta   106.44061150
_cell_angle_gamma   117.56634622
_symmetry_Int_Tables_number   1
_chemical_formula_structural   NdH14C14N3O9F4
_chemical_formula_sum   'Nd4 H56 C56 N12 O36 F16'
_cell_volume   2440.37288923
_cell_formula_units_Z   4
loop_
 _symmetry_equiv_pos_site_id
 _symmetry_equiv_pos_as_xyz
  1  'x, y, z'
loop_
 _atom_site_type_symbol
 _atom_site_label
 _atom_site_symmetry_multiplicity
 _atom_site_fract_x
 _atom_site_fract_y
 _atom_site_fract_z
 _atom_site_occupancy
 _atom_site_pbe_bader_charge
 _atom_site_pbe_bader_spin_density
 _atom_site_pbe_cm5_charge
 _atom_site_pbe_ddec_charge
 _atom_site_pbe_ddec_spin_density
 _atom_site_pbe_ddec_sum_bond_order
 _atom_site_pbe_magmom
Nd  Nd0  1  0.75296983  0.89282090  0.69481239  1  2.25278  0  1.505264  2.059822  0  2.185467  0
Nd  Nd1  1  0.66538907  0.60727216  0.80521382  1  2.251009  0  1.505427  2.060061  0  2.185138  0
Nd  Nd2  1  0.24703049  0.10717920  0.30518755  1  2.252762  0  1.505267  2.059843  0  2.185413  0
Nd  Nd3  1  0.33461086  0.39272886  0.19478558  1  2.251074  0  1.505402  2.060054  0  2.185125  0
H  H4  1  0.01406796  0.97867923  0.61075189  1  0.096136  0  0.130583  0.051597  0  0.981286  0
H  H5  1  0.92449306  0.52130603  0.88925460  1  0.118914  0  0.130441  0.051904  0  0.982076  0
H  H6  1  0.98593198  0.02132179  0.38925046  1  0.095952  0  0.130604  0.051635  0  0.98125  0
H  H7  1  0.07550132  0.47869314  0.11074340  1  0.118861  0  0.130458  0.05193  0  0.98203  0
H  H8  1  0.01954830  0.26329741  0.65480642  1  0.102941  0  0.115673  0.134971  0  1.006598  0
H  H9  1  0.60129185  0.23661135  0.84508504  1  0.102944  0  0.115768  0.135206  0  1.005879  0
H  H10  1  0.98045111  0.73670268  0.34519288  1  0.102941  0  0.115669  0.134969  0  1.006602  0
H  H11  1  0.39870667  0.76338874  0.15491510  1  0.102954  0  0.115793  0.135239  0  1.005867  0
H  H12  1  0.07105221  0.31950658  0.58181155  1  0.08064  0  0.109515  0.12824  0  0.977401  0
H  H13  1  0.66955708  0.18037402  0.91808275  1  0.053484  0  0.109362  0.127997  0  0.977606  0
H  H14  1  0.92894862  0.68049443  0.41818800  1  0.080737  0  0.109528  0.128257  0  0.977379  0
H  H15  1  0.33044132  0.81962423  0.08191734  1  0.053508  0  0.109384  0.128027  0  0.977592  0
H  H16  1  0.19992152  0.34464010  0.66248478  1  0.088682  0  0.107941  0.127967  0  0.992648  0
H  H17  1  0.69269058  0.15532159  0.83744043  1  0.091351  0  0.107967  0.128171  0  0.992858  0
H  H18  1  0.80007841  0.65536092  0.33751511  1  0.088694  0  0.107939  0.127963  0  0.992652  0
H  H19  1  0.30730923  0.84467758  0.16255941  1  0.091372  0  0.107972  0.128173  0  0.992879  0
H  H20  1  0.14575084  0.06923376  0.54768841  1  0.057637  0  0.109788  0.12152  0  0.994227  0
H  H21  1  0.02875062  0.43082492  0.95230212  1  0.055918  0  0.109816  0.12192  0  0.993671  0
H  H22  1  0.85424807  0.93076541  0.45231129  1  0.057645  0  0.109789  0.121513  0  0.994245  0
H  H23  1  0.97124930  0.56917609  0.04769728  1  0.055924  0  0.109801  0.121909  0  0.993691  0
H  H24  1  0.26370188  0.23022742  0.57675396  1  0.090158  0  0.107185  0.127204  0  1.016079  0
H  H25  1  0.95675191  0.26982826  0.92326633  1  0.087439  0  0.106798  0.127052  0  1.015926  0
H  H26  1  0.73629844  0.76977267  0.42324549  1  0.090162  0  0.107174  0.127218  0  1.016093  0
H  H27  1  0.04324661  0.73017183  0.07673333  1  0.087383  0  0.106796  0.127016  0  1.015977  0
H  H28  1  0.10626964  0.17935080  0.50703737  1  0.078486  0  0.103866  0.118849  0  0.994611  0
H  H29  1  0.91983077  0.32067458  0.99294103  1  0.075632  0  0.104173  0.119723  0  0.993351  0
H  H30  1  0.89373068  0.82064929  0.49296257  1  0.078483  0  0.103871  0.118859  0  0.994592  0
H  H31  1  0.08016955  0.67932551  0.00705841  1  0.075604  0  0.104161  0.119727  0  0.993319  0
H  H32  1  0.51061147  0.99467458  0.68295670  1  0.119636  0  0.12444  0.04801  0  1.019836  0
H  H33  1  0.33288816  0.50533619  0.81704352  1  0.102583  0  0.12465  0.048474  0  1.019842  0
H  H34  1  0.48938501  0.00532183  0.31704404  1  0.119718  0  0.124474  0.048054  0  1.01983  0
H  H35  1  0.66711358  0.49466483  0.18295666  1  0.102582  0  0.124656  0.048496  0  1.019843  0
H  H36  1  0.39573317  0.09083374  0.68263713  1  0.051687  0  0.10342  0.110978  0  1.00247  0
H  H37  1  0.12221808  0.40907066  0.81732569  1  0.052096  0  0.103256  0.111085  0  1.001607  0
H  H38  1  0.60426664  0.90916543  0.31736320  1  0.051702  0  0.103419  0.110995  0  1.002482  0
H  H39  1  0.87778275  0.59093035  0.18267386  1  0.052105  0  0.103249  0.111075  0  1.00163  0
H  H40  1  0.43680401  0.21462406  0.63465921  1  0.12033  0  0.103995  0.126905  0  1.03354  0
H  H41  1  0.08752197  0.28526493  0.86529342  1  0.090141  0  0.10443  0.127796  0  1.033014  0
H  H42  1  0.56319670  0.78537511  0.36534078  1  0.120316  0  0.104012  0.126916  0  1.033554  0
H  H43  1  0.91247835  0.71473516  0.13470602  1  0.090225  0  0.104437  0.127796  0  1.032978  0
H  H44  1  0.49906840  0.24868747  0.72723150  1  0.09487  0  0.110785  0.130161  0  1.005944  0
H  H45  1  0.02310629  0.25123649  0.77271479  1  0.090866  0  0.110879  0.130669  0  1.00651  0
H  H46  1  0.50093283  0.75131263  0.27276859  1  0.094897  0  0.11078  0.130165  0  1.005903  0
H  H47  1  0.97689545  0.74876453  0.22728490  1  0.090877  0  0.110887  0.130676  0  1.006477  0
H  H48  1  0.80752865  0.28327300  0.68875114  1  0.083157  0  0.107997  0.125822  0  1.009252  0
H  H49  1  0.33553942  0.21672319  0.81123865  1  0.07541  0  0.108056  0.126033  0  1.008766  0
H  H50  1  0.19247207  0.71672617  0.31124884  1  0.08302  0  0.107992  0.125828  0  1.009231  0
H  H51  1  0.66446142  0.78327783  0.18876138  1  0.075422  0  0.108048  0.126014  0  1.008788  0
H  H52  1  0.73643616  0.36931820  0.71832377  1  0.099463  0  0.107615  0.125618  0  1.025945  0
H  H53  1  0.14879765  0.13068559  0.78162744  1  0.096541  0  0.107586  0.12537  0  1.026392  0
H  H54  1  0.26356365  0.63068097  0.28167607  1  0.099425  0  0.107613  0.12564  0  1.025934  0
H  H55  1  0.85120409  0.86931543  0.21837224  1  0.09653  0  0.107572  0.125368  0  1.026384  0
H  H56  1  0.69125296  0.31995860  0.62731807  1  0.080928  0  0.106268  0.129969  0  0.988008  0
H  H57  1  0.24399614  0.18001225  0.87264550  1  0.086757  0  0.106734  0.130771  0  0.987193  0
H  H58  1  0.30874634  0.68003965  0.37268217  1  0.080903  0  0.106269  0.129975  0  0.988016  0
H  H59  1  0.75600469  0.81998877  0.12735453  1  0.087052  0  0.106715  0.130753  0  0.987221  0
C  C60  1  0.46608382  0.74995746  0.74997740  1  1.675539  0  0.243637  0.689709  0  4.142918  0
C  C61  1  0.53391690  0.25004171  0.25002258  1  1.675806  0  0.243672  0.689812  0  4.142888  0
C  C62  1  0.33486921  0.74997497  0.75002466  1  0.058572  0  -0.023354  -0.207349  0  4.000742  0
C  C63  1  0.66513009  0.25002328  0.24997509  1  0.058342  0  -0.023334  -0.207365  0  4.000696  0
C  C64  1  0.33751603  0.85551831  0.77726836  1  0.563267  0  0.089727  0.148599  0  4.099032  0
C  C65  1  0.20468224  0.64443086  0.72283282  1  0.517253  0  0.089553  0.147639  0  4.101708  0
C  C66  1  0.66248469  0.14448087  0.22273163  1  0.563453  0  0.089711  0.148582  0  4.099  0
C  C67  1  0.79531808  0.35556924  0.27716613  1  0.517266  0  0.089551  0.14761  0  4.101584  0
C  C68  1  0.21657863  0.85582049  0.77682386  1  0.50313  0  0.091647  0.15323  0  4.099282  0
C  C69  1  0.08390241  0.64411202  0.72332684  1  0.51108  0  0.090433  0.151878  0  4.099837  0
C  C70  1  0.78342209  0.14417868  0.22317662  1  0.503167  0  0.091577  0.153161  0  4.099329  0
C  C71  1  0.91609882  0.35588808  0.27667325  1  0.511335  0  0.090516  0.152059  0  4.099818  0
C  C72  1  0.08660983  0.74996356  0.75010767  1  0.118966  0  -0.022845  -0.203532  0  3.992375  0
C  C73  1  0.91339089  0.25003561  0.24989379  1  0.118889  0  -0.022851  -0.203623  0  3.992616  0
C  C74  1  0.95498821  0.74997987  0.75004219  1  1.680267  0  0.235833  0.685448  0  4.157125  0
C  C75  1  0.04501098  0.25001654  0.24995800  1  1.680232  0  0.235838  0.685485  0  4.157038  0
C  C76  1  0.57301405  0.55571986  0.65092159  1  1.636322  0  0.228007  0.665503  0  4.168524  0
C  C77  1  0.86645113  0.94446539  0.84909623  1  1.649657  0  0.228008  0.664549  0  4.1719  0
C  C78  1  0.42698820  0.44428208  0.34907917  1  1.636316  0  0.228087  0.665566  0  4.16849  0
C  C79  1  0.13354829  0.05553471  0.15090356  1  1.649896  0  0.227986  0.664485  0  4.171898  0
C  C80  1  0.53571429  0.52790915  0.57301552  1  0.119206  0  -0.019406  -0.204021  0  4.004257  0
C  C81  1  0.93485473  0.97228847  0.92699800  1  0.118062  0  -0.018726  -0.204133  0  4.006031  0
C  C82  1  0.46428785  0.47209094  0.42698520  1  0.119181  0  -0.019338  -0.203891  0  4.004221  0
C  C83  1  0.06514520  0.02771254  0.07300189  1  0.118424  0  -0.018739  -0.204147  0  4.005955  0
C  C84  1  0.63530963  0.54212053  0.54283311  1  0.520392  0  0.097306  0.163587  0  4.086308  0
C  C85  1  0.05031988  0.95794262  0.95714752  1  0.459127  0  0.097181  0.164837  0  4.085966  0
C  C86  1  0.36469262  0.45788141  0.45716815  1  0.520601  0  0.097292  0.163518  0  4.086383  0
C  C87  1  0.94968005  0.04205840  0.04285238  1  0.458775  0  0.097204  0.164867  0  4.085888  0
C  C88  1  0.59977345  0.51415702  0.47090524  1  0.55743  0  0.09606  0.162056  0  4.07963  0
C  C89  1  0.11462891  0.98570174  0.02907637  1  0.614157  0  0.095321  0.160547  0  4.07947  0
C  C90  1  0.40022688  0.48584308  0.52909519  1  0.557398  0  0.096094  0.162185  0  4.079642  0
C  C91  1  0.88537294  0.01430112  0.97092239  1  0.614211  0  0.095317  0.160533  0  4.079436  0
C  C92  1  0.01510256  0.06249477  0.63087686  1  1.391436  0  0.189955  0.325577  0  4.095437  0
C  C93  1  0.82158532  0.43748206  0.86911521  1  1.368957  0  0.190296  0.324004  0  4.096235  0
C  C94  1  0.98489697  0.93750717  0.36912396  1  1.3915  0  0.189854  0.325473  0  4.095494  0
C  C95  1  0.17840986  0.56251527  0.13088435  1  1.369111  0  0.19029  0.324025  0  4.096159  0
C  C96  1  0.09428228  0.27957482  0.62784945  1  0.232855  0  -0.130841  -0.275248  0  3.881195  0
C  C97  1  0.68672172  0.22034898  0.87206779  1  0.260578  0  -0.130876  -0.276181  0  3.879632  0
C  C98  1  0.90571906  0.72042712  0.37215020  1  0.232741  0  -0.13086  -0.27529  0  3.881167  0
C  C99  1  0.31327668  0.77964927  0.12793231  1  0.260578  0  -0.130947  -0.276265  0  3.879646  0
C  C100  1  0.15355203  0.15985309  0.55683998  1  0.270203  0  -0.131116  -0.286855  0  3.934469  0
C  C101  1  0.93682271  0.34016763  0.94314637  1  0.285362  0  -0.131451  -0.288637  0  3.934221  0
C  C102  1  0.84644829  0.84014701  0.44315947  1  0.270211  0  -0.131112  -0.286895  0  3.93449  0
C  C103  1  0.06317580  0.65983247  0.05685279  1  0.285411  0  -0.131394  -0.288555  0  3.934248  0
C  C104  1  0.60569016  0.07614509  0.68202916  1  1.362485  0  0.18489  0.319054  0  4.098086  0
C  C105  1  0.34752175  0.42391133  0.81799063  1  1.385258  0  0.184282  0.317949  0  4.100226  0
C  C106  1  0.39430644  0.92385316  0.31797212  1  1.362  0  0.18493  0.319138  0  4.098038  0
C  C107  1  0.65247857  0.57608876  0.18200882  1  1.384591  0  0.184242  0.317922  0  4.100276  0
C  C108  1  0.47520733  0.18349478  0.68162258  1  0.223848  0  -0.131186  -0.281365  0  3.890959  0
C  C109  1  0.11007005  0.31641062  0.81832743  1  0.248088  0  -0.131458  -0.283348  0  3.89255  0
C  C110  1  0.52479210  0.81650532  0.31837820  1  0.223844  0  -0.131214  -0.28141  0  3.890991  0
C  C111  1  0.88993169  0.68359040  0.18167275  1  0.247956  0  -0.131464  -0.283315  0  3.892528  0
C  C112  1  0.71641910  0.29554394  0.67892492  1  0.241527  0  -0.134499  -0.274486  0  3.869849  0
C  C113  1  0.24194634  0.20444448  0.82104246  1  0.241362  0  -0.135194  -0.275532  0  3.867863  0
C  C114  1  0.28358111  0.70445431  0.32107497  1  0.241716  0  -0.134517  -0.274521  0  3.869912  0
C  C115  1  0.75805449  0.79555654  0.17895708  1  0.24105  0  -0.135128  -0.275458  0  3.867895  0
N  N116  1  0.08484021  0.16245259  0.60630373  1  -1.228616  0  -0.274659  0.040135  0  3.705163  0
N  N117  1  0.81598114  0.33750390  0.89365351  1  -1.237205  0  -0.274588  0.041818  0  3.704284  0
N  N118  1  0.91515972  0.83754843  0.39369665  1  -1.228599  0  -0.274648  0.040198  0  3.705089  0
N  N119  1  0.18401686  0.66249527  0.10634604  1  -1.237267  0  -0.274616  0.041774  0  3.70422  0
N  N120  1  0.59997452  0.18045961  0.68157326  1  -1.216831  0  -0.272286  0.049382  0  3.706278  0
N  N121  1  0.23794851  0.31952834  0.81839774  1  -1.208218  0  -0.272171  0.050447  0  3.705222  0
N  N122  1  0.40002389  0.81953864  0.31842684  1  -1.216755  0  -0.272286  0.049319  0  3.706339  0
N  N123  1  0.76205323  0.68047267  0.18160244  1  -1.20753  0  -0.272172  0.050392  0  3.705263  0
N  N124  1  0.60670827  0.80856897  0.54156079  1  0.828669  0  0.082103  0.721822  0  4.438884  0
N  N125  1  0.75670830  0.69151625  0.95846841  1  0.819509  0  0.082952  0.724335  0  4.436224  0
N  N126  1  0.39329115  0.19143113  0.45843900  1  0.828778  0  0.082154  0.72196  0  4.438874  0
N  N127  1  0.24329293  0.30848385  0.04153167  1  0.819368  0  0.082975  0.724355  0  4.436239  0
O  O128  1  0.54758031  0.83817804  0.72801645  1  -1.179204  0  -0.374803  -0.636736  0  2.289477  0
O  O129  1  0.48133340  0.66173083  0.77191752  1  -1.182018  0  -0.37479  -0.636623  0  2.290971  0
O  O130  1  0.45241951  0.16182114  0.27198389  1  -1.179237  0  -0.374815  -0.636773  0  2.289433  0
O  O131  1  0.51867066  0.33827111  0.22808451  1  -1.182248  0  -0.374798  -0.636666  0  2.291017  0
O  O132  1  0.93488661  0.83248010  0.72248635  1  -1.184788  0  -0.377743  -0.64794  0  2.242294  0
O  O133  1  0.87979802  0.66744706  0.77752569  1  -1.18425  0  -0.377298  -0.647377  0  2.242567  0
O  O134  1  0.06511207  0.16751538  0.27751325  1  -1.184819  0  -0.377696  -0.647889  0  2.242224  0
O  O135  1  0.12020168  0.33255027  0.22247362  1  -1.184203  0  -0.377343  -0.647417  0  2.242425  0
O  O136  1  0.63949695  0.66875463  0.68101409  1  -1.209269  0  -0.422667  -0.72937  0  2.436732  0
O  O137  1  0.78973569  0.83141542  0.81903484  1  -1.213615  0  -0.422318  -0.728146  0  2.436208  0
O  O138  1  0.36050530  0.33124731  0.31898569  1  -1.209222  0  -0.422724  -0.729423  0  2.436682  0
O  O139  1  0.21026775  0.16858375  0.18096509  1  -1.213873  0  -0.422315  -0.728133  0  2.436231  0
O  O140  1  0.53943743  0.46821682  0.68385963  1  -1.171084  0  -0.336645  -0.575409  0  2.12993  0
O  O141  1  0.88756834  0.03194993  0.81613828  1  -1.171087  0  -0.336889  -0.57536  0  2.132123  0
O  O142  1  0.46056211  0.53178512  0.31614120  1  -1.171107  0  -0.336683  -0.575447  0  2.129919  0
O  O143  1  0.11242927  0.96805016  0.18386270  1  -1.17109  0  -0.336886  -0.575322  0  2.13207  0
O  O144  1  0.95463229  0.06138082  0.67356024  1  -1.184339  0  -0.368526  -0.552879  0  2.388919  0
O  O145  1  0.71952037  0.43859346  0.82643466  1  -1.18702  0  -0.368735  -0.552052  0  2.389327  0
O  O146  1  0.04536504  0.93862204  0.32643927  1  -1.184214  0  -0.368442  -0.552829  0  2.389013  0
O  O147  1  0.28047238  0.56140110  0.17356595  1  -1.187066  0  -0.368729  -0.552082  0  2.389402  0
O  O148  1  0.71090415  0.06794188  0.68252300  1  -1.179681  0  -0.383979  -0.563988  0  2.342596  0
O  O149  1  0.46054299  0.43225465  0.81757142  1  -1.179879  0  -0.383739  -0.563586  0  2.344634  0
O  O150  1  0.28909194  0.93205545  0.31747819  1  -1.17935  0  -0.384002  -0.564034  0  2.342548  0
O  O151  1  0.53945784  0.56774637  0.18242763  1  -1.179871  0  -0.383734  -0.563602  0  2.344686  0
O  O152  1  0.54523645  0.81854972  0.58289312  1  -0.562105  0  -0.240573  -0.509707  0  1.966718  0
O  O153  1  0.64395670  0.68158996  0.91708817  1  -0.553062  0  -0.241888  -0.511575  0  1.96636  0
O  O154  1  0.45476427  0.18144945  0.41710735  1  -0.562109  0  -0.240584  -0.509744  0  1.966683  0
O  O155  1  0.35604362  0.31841014  0.08291177  1  -0.552913  0  -0.241884  -0.511557  0  1.966361  0
O  O156  1  0.54692948  0.77204571  0.47809735  1  -0.484713  0  -0.150049  -0.383035  0  1.966831  0
O  O157  1  0.79682912  0.72797602  0.02193397  1  -0.483229  0  -0.149905  -0.383437  0  1.967164  0
O  O158  1  0.45306965  0.22795715  0.52190245  1  -0.484704  0  -0.150082  -0.383114  0  1.966901  0
O  O159  1  0.20317171  0.27202500  0.97806607  1  -0.483252  0  -0.149935  -0.383467  0  1.967198  0
O  O160  1  0.73594170  0.83821779  0.56995526  1  -0.60281  0  -0.258419  -0.553696  0  2.002167  0
O  O161  1  0.82794488  0.66188322  0.93011718  1  -0.604551  0  -0.257786  -0.554217  0  2.000572  0
O  O162  1  0.26405811  0.16178138  0.43004360  1  -0.602922  0  -0.258425  -0.553727  0  2.002166  0
O  O163  1  0.17205635  0.33811687  0.06988339  1  -0.604562  0  -0.257787  -0.55423  0  2.000572  0
F  F164  1  0.46005228  0.96110549  0.80650074  1  -0.629546  0  -0.078492  -0.105619  0  1.417286  0
F  F165  1  0.19230481  0.53889816  0.69347517  1  -0.62799  0  -0.078587  -0.105517  0  1.417897  0
F  F166  1  0.53994754  0.03889368  0.19349861  1  -0.629579  0  -0.078501  -0.105623  0  1.417244  0
F  F167  1  0.80769642  0.46110193  0.30652442  1  -0.627961  0  -0.078605  -0.105523  0  1.417888  0
F  F168  1  0.22865170  0.96193202  0.80468130  1  -0.617869  0  -0.078645  -0.100774  0  1.423557  0
F  F169  1  0.96197795  0.53803062  0.69538577  1  -0.619272  0  -0.078183  -0.100122  0  1.423586  0
F  F170  1  0.77134863  0.03806807  0.19531864  1  -0.617869  0  -0.078601  -0.100718  0  1.423499  0
F  F171  1  0.03802147  0.46196947  0.30461305  1  -0.61947  0  -0.078208  -0.100166  0  1.423561  0
F  F172  1  0.76811786  0.58214423  0.58374014  1  -0.619076  0  -0.083119  -0.106324  0  1.378277  0
F  F173  1  0.10220310  0.91801339  0.91620222  1  -0.624553  0  -0.083198  -0.106527  0  1.377652  0
F  F174  1  0.23188388  0.41785678  0.41626053  1  -0.619252  0  -0.08313  -0.106338  0  1.378278  0
F  F175  1  0.89779773  0.08198762  0.08379733  1  -0.624548  0  -0.083223  -0.106553  0  1.377674  0
F  F176  1  0.69881075  0.52708912  0.44331533  1  -0.624093  0  -0.082841  -0.111006  0  1.376135  0
F  F177  1  0.22827482  0.97270575  0.05666594  1  -0.621244  0  -0.082405  -0.110303  0  1.375567  0
F  F178  1  0.30119149  0.47291282  0.55668544  1  -0.624088  0  -0.082844  -0.111031  0  1.376126  0
F  F179  1  0.77172561  0.02729619  0.94333257  1  -0.621263  0  -0.082415  -0.110314  0  1.375542  0
