# generated using pymatgen
data_AlH21C45(OF)6
_symmetry_space_group_name_H-M   'P 1'
_cell_length_a   3.94243113
_cell_length_b   23.56710622
_cell_length_c   23.56500795
_cell_angle_alpha   60.06063261
_cell_angle_beta   87.13837930
_cell_angle_gamma   86.87946418
_symmetry_Int_Tables_number   1
_chemical_formula_structural   AlH21C45(OF)6
_chemical_formula_sum   'Al1 H21 C45 O6 F6'
_cell_volume   1893.82105284
_cell_formula_units_Z   1
loop_
 _symmetry_equiv_pos_site_id
 _symmetry_equiv_pos_as_xyz
  1  'x, y, z'
loop_
 _atom_site_type_symbol
 _atom_site_label
 _atom_site_symmetry_multiplicity
 _atom_site_fract_x
 _atom_site_fract_y
 _atom_site_fract_z
 _atom_site_occupancy
 _atom_site_pbe_bader_charge
 _atom_site_pbe_bader_spin_density
 _atom_site_pbe_cm5_charge
 _atom_site_pbe_ddec_charge
 _atom_site_pbe_ddec_spin_density
 _atom_site_pbe_ddec_sum_bond_order
 _atom_site_pbe_magmom
Al  Al0  1  0.99597017  0.49978197  0.50028258  1  2.502278  0  0.426617  1.589982  0  2.576015  0
H  H1  1  0.50065594  0.32029893  0.68021810  1  0.071202  0  0.116474  0.122406  0  0.965388  0
H  H2  1  0.50208902  0.25703740  0.80121203  1  0.126607  0  0.101683  0.110971  0  1.007974  0
H  H3  1  0.84073481  0.16484759  0.01300572  1  0.076465  0  0.107605  0.129653  0  0.995165  0
H  H4  1  0.48480541  0.80410356  0.25654078  1  0.108001  0  0.108277  0.129472  0  0.997878  0
H  H5  1  0.23581788  0.89680217  0.22709603  1  0.053951  0  0.103257  0.104486  0  1.002357  0
H  H6  1  0.24453940  0.01629379  0.16529513  1  0.05857  0  0.09991  0.104065  0  1.006028  0
H  H7  1  0.52352143  0.10632484  0.10493191  1  0.063654  0  0.098768  0.097467  0  1.026582  0
H  H8  1  0.53186460  0.67892118  0.49874908  1  0.073239  0  0.116458  0.122417  0  0.967231  0
H  H9  1  0.53165251  0.79966237  0.44194876  1  0.094141  0  0.101692  0.111597  0  1.012917  0
H  H10  1  0.81890777  0.01250497  0.31871779  1  0.07457  0  0.107983  0.129603  0  0.997142  0
H  H11  1  0.55638191  0.25656577  0.43815389  1  0.109189  0  0.107853  0.128067  0  0.998092  0
H  H12  1  0.26877093  0.23017592  0.37903446  1  0.047151  0  0.10319  0.105034  0  1.001484  0
H  H13  1  0.26088590  0.16791675  0.32139671  1  0.079301  0  0.099652  0.103902  0  1.005343  0
H  H14  1  0.54479489  0.10517161  0.28779967  1  0.024571  0  0.099217  0.098568  0  1.026068  0
H  H15  1  0.58407801  0.49910567  0.32050252  1  0.112933  0  0.116251  0.12178  0  0.966897  0
H  H16  1  0.58342540  0.44194774  0.25666296  1  0.059647  0  0.102144  0.112073  0  1.009383  0
H  H17  1  0.86180786  0.31554296  0.16333470  1  0.059395  0  0.107349  0.128725  0  0.998308  0
H  H18  1  0.51286996  0.43884344  0.80465217  1  0.053078  0  0.107736  0.12818  0  0.996423  0
H  H19  1  0.21366020  0.37836204  0.89690291  1  0.075241  0  0.103217  0.105184  0  0.998797  0
H  H20  1  0.22343688  0.32003625  0.01708432  1  0.062023  0  0.099553  0.103024  0  1.005522  0
H  H21  1  0.54687189  0.28781474  0.10605192  1  0.032985  0  0.098967  0.097967  0  1.025867  0
C  C22  1  0.48306923  0.45087002  0.60123758  1  1.554308  0  0.283308  0.68169  0  4.052417  0
C  C23  1  0.52703618  0.44793186  0.45096870  1  1.62894  0  0.282066  0.679471  0  4.056679  0
C  C24  1  0.48088272  0.60059399  0.44814631  1  1.605428  0  0.281317  0.67742  0  4.058021  0
C  C25  1  0.49803626  0.34564797  0.70828607  1  -0.004337  0  -0.074444  -0.061218  0  3.976485  0
C  C26  1  0.50347750  0.31019950  0.77623324  1  0.040264  0  -0.093485  -0.146664  0  3.987  0
C  C27  1  0.68571761  0.24496191  0.92128190  1  0.458812  0  0.10022  0.254053  0  4.032965  0
C  C28  1  0.69383184  0.21095189  0.98901245  1  -0.018359  0  -0.102604  -0.259972  0  4.000668  0
C  C29  1  0.46216361  0.71093479  0.34329753  1  0.355922  0  0.105789  0.28624  0  4.049463  0
C  C30  1  0.48291036  0.77855235  0.30987294  1  0.055306  0  -0.102882  -0.268303  0  3.981206  0
C  C31  1  0.37189410  0.92203597  0.24665326  1  -0.028818  0  -0.088917  -0.106056  0  4.008143  0
C  C32  1  0.37675970  0.98996494  0.21144734  1  -0.033194  0  -0.098861  -0.150302  0  4.013965  0
C  C33  1  0.48391503  0.41431473  0.67428606  1  -0.006984  0  -0.014356  -0.141294  0  3.959165  0
C  C34  1  0.50869449  0.34245559  0.81282826  1  -0.008632  0  -0.004648  0.108887  0  4.011881  0
C  C35  1  0.51866648  0.30627549  0.88498787  1  0.09547  0  -0.013973  -0.042278  0  3.993507  0
C  C36  1  0.53039616  0.23752655  0.02512290  1  -0.078797  0  -0.006821  0.090225  0  4.018335  0
C  C37  1  0.53443212  0.20117327  0.09734745  1  -0.008751  0  -0.006749  0.081422  0  4.02102  0
C  C38  1  0.53021337  0.13258941  0.13199866  1  0.01522  0  -0.087934  -0.174656  0  3.926891  0
C  C39  1  0.51508324  0.70731230  0.44560386  1  0.051871  0  -0.073721  -0.058092  0  3.97613  0
C  C40  1  0.51988273  0.77520595  0.41343127  1  -0.04625  0  -0.094817  -0.148441  0  3.984431  0
C  C41  1  0.67320540  0.92108941  0.33180225  1  0.331065  0  0.100873  0.255189  0  4.028701  0
C  C42  1  0.68053555  0.98878442  0.29785494  1  0.108137  0  -0.102481  -0.258651  0  4.000888  0
C  C43  1  0.53510469  0.34340873  0.44517155  1  0.416403  0  0.10437  0.282806  0  4.053131  0
C  C44  1  0.55174180  0.30991253  0.41064843  1  0.021075  0  -0.102207  -0.267338  0  3.984527  0
C  C45  1  0.40676194  0.24818190  0.33231119  1  -0.052919  0  -0.088486  -0.107246  0  4.007577  0
C  C46  1  0.40288138  0.21273482  0.29978214  1  -0.014946  0  -0.098884  -0.150448  0  4.015999  0
C  C47  1  0.48306015  0.67346834  0.41137873  1  0.006668  0  -0.014303  -0.143865  0  3.958617  0
C  C48  1  0.50929859  0.81226620  0.34460389  1  0.019888  0  -0.0025  0.113365  0  4.005131  0
C  C49  1  0.52010693  0.88442845  0.30850101  1  0.0404  0  -0.014688  -0.047075  0  3.991658  0
C  C50  1  0.53031169  0.02498357  0.23656050  1  -0.041158  0  -0.007007  0.089689  0  4.015549  0
C  C51  1  0.53394316  0.09722153  0.20059535  1  0.014967  0  -0.007097  0.080867  0  4.017427  0
C  C52  1  0.54229706  0.13197237  0.23444803  1  -0.003268  0  -0.088113  -0.174395  0  3.923782  0
C  C53  1  0.57358808  0.44587741  0.34558800  1  -0.043377  0  -0.073649  -0.059065  0  3.975749  0
C  C54  1  0.57697731  0.41353885  0.30983152  1  -0.063578  0  -0.093714  -0.148931  0  3.983401  0
C  C55  1  0.72399090  0.33028596  0.24368428  1  0.407591  0  0.100927  0.256489  0  4.029276  0
C  C56  1  0.72264042  0.29609353  0.21004801  1  0.018214  0  -0.102059  -0.258252  0  3.997632  0
C  C57  1  0.47997578  0.44564584  0.71131272  1  0.379284  0  0.103888  0.280933  0  4.053911  0
C  C58  1  0.49897799  0.41131524  0.77901299  1  0.08092  0  -0.101727  -0.264612  0  3.982565  0
C  C59  1  0.35756161  0.33201334  0.92243568  1  -0.087261  0  -0.088606  -0.107841  0  4.007916  0
C  C60  1  0.36317328  0.29909394  0.99040723  1  0.014985  0  -0.098668  -0.148726  0  4.012541  0
C  C61  1  0.54724194  0.41157368  0.41417600  1  0.012476  0  -0.014339  -0.142349  0  3.959833  0
C  C62  1  0.56783318  0.34474577  0.34177613  1  0.085976  0  -0.00349  0.113065  0  4.006768  0
C  C63  1  0.56797566  0.30854805  0.30566789  1  0.053497  0  -0.015131  -0.045217  0  3.991583  0
C  C64  1  0.55929228  0.23632016  0.23752003  1  -0.020744  0  -0.006859  0.089169  0  4.018558  0
C  C65  1  0.54847426  0.20049641  0.20120049  1  -0.059033  0  -0.006598  0.082164  0  4.020781  0
C  C66  1  0.54330565  0.23445720  0.13258527  1  0.023607  0  -0.088715  -0.177189  0  3.929285  0
O  O67  1  0.25326575  0.57220143  0.43593559  1  -1.236649  0  -0.231801  -0.589156  0  2.360587  0
O  O68  1  0.23894775  0.49162724  0.57294311  1  -1.238432  0  -0.23121  -0.587541  0  2.352479  0
O  O69  1  0.28211706  0.43578426  0.49230929  1  -1.246471  0  -0.23272  -0.592812  0  2.36509  0
O  O70  1  0.70793427  0.57148984  0.49110670  1  -1.257785  0  -0.234494  -0.595279  0  2.359132  0
O  O71  1  0.75215230  0.49000660  0.43722227  1  -1.247528  0  -0.233232  -0.589769  0  2.347519  0
O  O72  1  0.72812954  0.43715966  0.57227642  1  -1.244921  0  -0.23382  -0.591957  0  2.35099  0
F  F73  1  0.52007999  0.30766641  0.51178202  1  -0.62849  0  -0.105879  -0.144768  0  1.310329  0
F  F74  1  0.47256970  0.51232571  0.68030664  1  -0.639809  0  -0.106668  -0.145898  0  1.306936  0
F  F75  1  0.43756142  0.68066300  0.30739737  1  -0.634779  0  -0.105977  -0.145467  0  1.311624  0
F  F76  1  0.89900882  0.38697391  0.21441992  1  -0.640914  0  -0.099644  -0.149321  0  1.353323  0
F  F77  1  0.86227041  0.21697265  0.88953270  1  -0.641399  0  -0.099758  -0.149586  0  1.35369  0
F  F78  1  0.83758347  0.88995349  0.38998356  1  -0.6373  0  -0.097877  -0.147742  0  1.360101  0
