# generated using pymatgen
data_CdH23C32N5O4
_symmetry_space_group_name_H-M   'P 1'
_cell_length_a   9.66903159
_cell_length_b   10.13270662
_cell_length_c   15.29551007
_cell_angle_alpha   72.88581179
_cell_angle_beta   84.87316252
_cell_angle_gamma   63.86253307
_symmetry_Int_Tables_number   1
_chemical_formula_structural   CdH23C32N5O4
_chemical_formula_sum   'Cd2 H46 C64 N10 O8'
_cell_volume   1284.32390266
_cell_formula_units_Z   2
loop_
 _symmetry_equiv_pos_site_id
 _symmetry_equiv_pos_as_xyz
  1  'x, y, z'
loop_
 _atom_site_type_symbol
 _atom_site_label
 _atom_site_symmetry_multiplicity
 _atom_site_fract_x
 _atom_site_fract_y
 _atom_site_fract_z
 _atom_site_occupancy
 _atom_site_hle17_bader_spin_density
 _atom_site_hle17_ddec_charge
 _atom_site_hle17_ddec_spin_density
 _atom_site_hle17_ddec_sum_bond_order
 _atom_site_hle17_magmom
 _atom_site_hse06_10hf_bader_spin_density
 _atom_site_hse06_10hf_ddec_charge
 _atom_site_hse06_10hf_ddec_spin_density
 _atom_site_hse06_10hf_ddec_sum_bond_order
 _atom_site_hse06_10hf_magmom
 _atom_site_hse06_bader_spin_density
 _atom_site_hse06_ddec_charge
 _atom_site_hse06_ddec_spin_density
 _atom_site_hse06_ddec_sum_bond_order
 _atom_site_hse06_magmom
 _atom_site_pbe_bader_spin_density
 _atom_site_pbe_cm5_charge
 _atom_site_pbe_ddec_charge
 _atom_site_pbe_ddec_spin_density
 _atom_site_pbe_ddec_sum_bond_order
 _atom_site_pbe_magmom
Cd  Cd0  1  0.24839601  0.20666674  0.65757553  1  0  1.091316  0  1.668294  0  0  0.900339  0  2.103395  0  0  0.959616  0  2.052762  0  0  0.770887  0.858517  0  2.137619  0
Cd  Cd1  1  0.75160177  0.79333435  0.34242453  1  0  1.091273  0  1.668354  0  0  0.900302  0  2.103445  0  0  0.95958  0  2.052809  0  0  0.77087  0.858479  0  2.137666  0
H  H2  1  0.00607292  0.95306487  0.20618674  1  0  0.295819  0  0.928578  0  0  0.277312  0  0.996434  0  0  0.285271  0  0.990005  0  0  0.299894  0.271894  0  1.000615  0
H  H3  1  0.99392793  0.04693392  0.79381293  1  0  0.295833  0  0.928559  0  0  0.277321  0  0.996417  0  0  0.28528  0  0.98999  0  0  0.299899  0.271905  0  1.000594  0
H  H4  1  0.42547216  0.99457353  0.39663768  1  0  0.102496  0  0.982951  0  0  0.111401  0  1.049494  0  0  0.114645  0  1.046512  0  0  0.099483  0.109131  0  1.051536  0
H  H5  1  0.57452661  0.00542527  0.60336211  1  0  0.102487  0  0.982939  0  0  0.111375  0  1.049502  0  0  0.114618  0  1.046523  0  0  0.09948  0.109106  0  1.051547  0
H  H6  1  0.38328856  0.94118126  0.25621536  1  0  0.112547  0  0.985828  0  0  0.122432  0  1.048659  0  0  0.125937  0  1.047024  0  0  0.099717  0.119852  0  1.050168  0
H  H7  1  0.61671226  0.05881523  0.74378541  1  0  0.112544  0  0.985811  0  0  0.122426  0  1.048661  0  0  0.125934  0  1.047015  0  0  0.099719  0.119843  0  1.050174  0
H  H8  1  0.90271514  0.07386008  0.31641085  1  0  0.113351  0  0.965226  0  0  0.124463  0  1.024681  0  0  0.127664  0  1.023414  0  0  0.104916  0.12215  0  1.025845  0
H  H9  1  0.09728576  0.92614100  0.68358902  1  0  0.113362  0  0.965192  0  0  0.124461  0  1.024664  0  0  0.127662  0  1.023399  0  0  0.104928  0.122149  0  1.025828  0
H  H10  1  0.94482277  0.14521016  0.45051551  1  0  0.096551  0  0.953016  0  0  0.108678  0  1.011322  0  0  0.111325  0  1.010058  0  0  0.103369  0.106759  0  1.01225  0
H  H11  1  0.05517763  0.85479206  0.54948351  1  0  0.096608  0  0.953021  0  0  0.10873  0  1.011313  0  0  0.111378  0  1.010049  0  0  0.103388  0.106813  0  1.012238  0
H  H12  1  0.28892243  0.10775735  0.12288607  1  0  0.10253  0  0.971797  0  0  0.110711  0  1.037181  0  0  0.113696  0  1.036912  0  0  0.099439  0.108865  0  1.036833  0
H  H13  1  0.71107945  0.89223914  0.87711595  1  0  0.102539  0  0.971787  0  0  0.110697  0  1.037188  0  0  0.113678  0  1.036926  0  0  0.099454  0.108853  0  1.036839  0
H  H14  1  0.36864893  0.13030049  0.96383504  1  0  0.09364  0  0.964706  0  0  0.102271  0  1.031767  0  0  0.104933  0  1.030358  0  0  0.099919  0.100532  0  1.032955  0
H  H15  1  0.63135145  0.86969945  0.03616705  1  0  0.093636  0  0.964724  0  0  0.102264  0  1.031792  0  0  0.104927  0  1.030382  0  0  0.099909  0.100526  0  1.032982  0
H  H16  1  0.17113368  0.83665309  0.93846749  1  0  0.087655  0  0.981677  0  0  0.096751  0  1.048049  0  0  0.099333  0  1.046763  0  0  0.097712  0.094909  0  1.049035  0
H  H17  1  0.82886876  0.16334684  0.06153251  1  0  0.08767  0  0.981662  0  0  0.096759  0  1.048048  0  0  0.099333  0  1.046769  0  0  0.097696  0.094915  0  1.049033  0
H  H18  1  0.09757958  0.80624030  0.09949205  1  0  0.093994  0  0.973726  0  0  0.101987  0  1.041074  0  0  0.104897  0  1.040748  0  0  0.097555  0.100385  0  1.040703  0
H  H19  1  0.90242282  0.19375734  0.90050840  1  0  0.093995  0  0.973756  0  0  0.101998  0  1.041096  0  0  0.104924  0  1.040739  0  0  0.097561  0.100397  0  1.040726  0
H  H20  1  0.48035963  0.21132322  0.47113931  1  0  0.109506  0  0.96341  0  0  0.113872  0  1.034031  0  0  0.11694  0  1.030376  0  0  0.135425  0.111366  0  1.036913  0
H  H21  1  0.51963915  0.78867557  0.52886049  1  0  0.109529  0  0.963408  0  0  0.113894  0  1.034024  0  0  0.116961  0  1.030367  0  0  0.135435  0.111379  0  1.036911  0
H  H22  1  0.20106314  0.57432334  0.58240053  1  0  0.10831  0  0.94992  0  0  0.118025  0  1.010501  0  0  0.120408  0  1.009493  0  0  0.120409  0.116401  0  1.011179  0
H  H23  1  0.79893569  0.42567774  0.41760012  1  0  0.108287  0  0.949952  0  0  0.118002  0  1.010532  0  0  0.120385  0  1.009525  0  0  0.120414  0.116378  0  1.011214  0
H  H24  1  0.28696451  0.69745274  0.41296820  1  0  0.119198  0  0.961907  0  0  0.130065  0  1.020498  0  0  0.132069  0  1.020316  0  0  0.124381  0.128562  0  1.020755  0
H  H25  1  0.71303844  0.30254604  0.58703265  1  0  0.119191  0  0.961882  0  0  0.130056  0  1.020468  0  0  0.132059  0  1.020291  0  0  0.124374  0.128555  0  1.020725  0
H  H26  1  0.37159834  0.71380238  0.28555154  1  0  0.097132  0  0.995172  0  0  0.10525  0  1.063146  0  0  0.107811  0  1.062387  0  0  0.101514  0.103309  0  1.063986  0
H  H27  1  0.62839994  0.28619756  0.71444806  1  0  0.097112  0  0.995183  0  0  0.105226  0  1.063158  0  0  0.107786  0  1.062399  0  0  0.101523  0.10328  0  1.064004  0
H  H28  1  0.49888668  0.73319879  0.14017127  1  0  0.095411  0  0.968656  0  0  0.104448  0  1.03478  0  0  0.106724  0  1.034115  0  0  0.099722  0.102655  0  1.03547  0
H  H29  1  0.50111263  0.26680114  0.85982892  1  0  0.095405  0  0.968644  0  0  0.104446  0  1.034773  0  0  0.106722  0  1.034108  0  0  0.099721  0.102655  0  1.035462  0
H  H30  1  0.72759230  0.23921718  0.20649277  1  0  0.098412  0  0.982772  0  0  0.105229  0  1.051455  0  0  0.108251  0  1.049827  0  0  0.098603  0.102918  0  1.052964  0
H  H31  1  0.27240702  0.76078276  0.79350742  1  0  0.098445  0  0.98275  0  0  0.105261  0  1.051425  0  0  0.108285  0  1.049792  0  0  0.09861  0.10295  0  1.052934  0
H  H32  1  0.60665864  0.21859800  0.35365467  1  0  0.117287  0  0.974345  0  0  0.126668  0  1.035845  0  0  0.129971  0  1.034205  0  0  0.104881  0.124218  0  1.03721  0
H  H33  1  0.39334068  0.78140194  0.64634552  1  0  0.117299  0  0.974371  0  0  0.126639  0  1.035913  0  0  0.129941  0  1.034273  0  0  0.104872  0.124189  0  1.037277  0
H  H34  1  0.49437108  0.68184803  0.99460106  1  0  0.093461  0  0.973153  0  0  0.102219  0  1.038825  0  0  0.103993  0  1.039872  0  0  0.099678  0.101217  0  1.03771  0
H  H35  1  0.50562825  0.31815191  0.00539978  1  0  0.093468  0  0.973167  0  0  0.102205  0  1.038871  0  0  0.103978  0  1.039919  0  0  0.09968  0.101202  0  1.037757  0
H  H36  1  0.60937199  0.68420814  0.84502799  1  0  0.105811  0  0.95298  0  0  0.118889  0  1.009077  0  0  0.121492  0  1.008408  0  0  0.107554  0.116982  0  1.009761  0
H  H37  1  0.39062683  0.31579295  0.15497201  1  0  0.105806  0  0.952981  0  0  0.118885  0  1.009076  0  0  0.121489  0  1.008406  0  0  0.107553  0.116976  0  1.009759  0
H  H38  1  0.04128608  0.32230672  0.97969378  1  0  0.095746  0  0.981586  0  0  0.10664  0  1.044879  0  0  0.108469  0  1.045801  0  0  0.102812  0.105842  0  1.043328  0
H  H39  1  0.95871377  0.67769436  0.02030550  1  0  0.095742  0  0.981574  0  0  0.106637  0  1.044871  0  0  0.108468  0  1.045787  0  0  0.102803  0.105839  0  1.04332  0
H  H40  1  0.92346231  0.31743012  0.12768953  1  0  0.100693  0  0.939889  0  0  0.111539  0  1.000047  0  0  0.114294  0  0.999215  0  0  0.104057  0.109671  0  1.000425  0
H  H41  1  0.07653859  0.68257096  0.87231034  1  0  0.100695  0  0.939881  0  0  0.111537  0  1.000044  0  0  0.114288  0  0.999215  0  0  0.104049  0.109671  0  1.00042  0
H  H42  1  0.72713656  0.69638359  0.71953094  1  0  0.113979  0  0.967977  0  0  0.124984  0  1.028368  0  0  0.126915  0  1.028339  0  0  0.122705  0.12339  0  1.028867  0
H  H43  1  0.27286073  0.30361864  0.28046958  1  0  0.113941  0  0.968037  0  0  0.124923  0  1.028449  0  0  0.126852  0  1.028428  0  0  0.122669  0.123332  0  1.028947  0
H  H44  1  0.92429580  0.57706274  0.59144944  1  0  0.119301  0  0.953482  0  0  0.126776  0  1.014677  0  0  0.129609  0  1.013486  0  0  0.120117  0.124787  0  1.015382  0
H  H45  1  0.07570049  0.42294179  0.40855068  1  0  0.119309  0  0.95345  0  0  0.126782  0  1.014645  0  0  0.129615  0  1.013455  0  0  0.120116  0.124796  0  1.015349  0
H  H46  1  0.11094745  0.28785913  0.85484747  1  0  0.083999  0  0.99153  0  0  0.091547  0  1.062139  0  0  0.093348  0  1.059764  0  0  0.131183  0.090359  0  1.063474  0
H  H47  1  0.88905080  0.71214081  0.14515082  1  0  0.084007  0  0.991508  0  0  0.091513  0  1.062168  0  0  0.093313  0  1.059797  0  0  0.13116  0.090325  0  1.063504  0
C  C48  1  0.18841034  0.07087692  0.43360254  1  0  -0.096103  0  3.804732  0  0  -0.073843  0  4.03983  0  0  -0.084783  0  4.064689  0  0  -0.035577  -0.066756  0  4.022831  0
C  C49  1  0.81159259  0.92912186  0.56639635  1  0  -0.096097  0  3.80471  0  0  -0.073823  0  4.03979  0  0  -0.08476  0  4.064646  0  0  -0.035547  -0.06674  0  4.022794  0
C  C50  1  0.31060956  0.01327136  0.37799227  1  0  -0.074451  0  3.779754  0  0  -0.098331  0  4.030552  0  0  -0.0956  0  4.05045  0  0  -0.094368  -0.099985  0  4.016784  0
C  C51  1  0.68939283  0.98672628  0.62200753  1  0  -0.074419  0  3.779632  0  0  -0.098284  0  4.030429  0  0  -0.095554  0  4.050327  0  0  -0.094373  -0.099933  0  4.016663  0
C  C52  1  0.28645690  0.98346350  0.29881306  1  0  -0.21127  0  3.755349  0  0  -0.227254  0  4.009876  0  0  -0.234684  0  4.029709  0  0  -0.113067  -0.222448  0  3.996791  0
C  C53  1  0.71354396  0.01653529  0.70118726  1  0  -0.211253  0  3.755316  0  0  -0.227239  0  4.009838  0  0  -0.234667  0  4.029673  0  0  -0.113053  -0.222435  0  3.996758  0
C  C54  1  0.13869451  0.00359627  0.27635557  1  0  0.252298  0  3.822116  0  0  0.242949  0  4.073663  0  0  0.254434  0  4.092843  0  0  0.095353  0.235426  0  4.060343  0
C  C55  1  0.86130634  0.99640252  0.72364410  1  0  0.252295  0  3.822104  0  0  0.242946  0  4.073652  0  0  0.25443  0  4.092833  0  0  0.095345  0.235424  0  4.06033  0
C  C56  1  0.01608779  0.06092749  0.33263896  1  0  -0.176909  0  3.726432  0  0  -0.195009  0  3.980139  0  0  -0.201651  0  3.999946  0  0  -0.102669  -0.190845  0  3.966923  0
C  C57  1  0.98391255  0.93907244  0.66735986  1  0  -0.176833  0  3.726369  0  0  -0.194918  0  3.980068  0  0  -0.201562  0  3.999879  0  0  -0.102643  -0.190751  0  3.966847  0
C  C58  1  0.04021054  0.09820309  0.40818370  1  0  -0.053669  0  3.782862  0  0  -0.077693  0  4.032852  0  0  -0.074466  0  4.052332  0  0  -0.086569  -0.079518  0  4.019416  0
C  C59  1  0.95978930  0.90179800  0.59181493  1  0  -0.053822  0  3.78302  0  0  -0.077851  0  4.033023  0  0  -0.074623  0  4.052498  0  0  -0.086635  -0.079681  0  4.019586  0
C  C60  1  0.18026975  0.96042023  0.12153391  1  0  0.262393  0  3.800981  0  0  0.253565  0  4.048372  0  0  0.265583  0  4.067459  0  0  0.10469  0.245556  0  4.034794  0
C  C61  1  0.81973316  0.03957626  0.87846739  1  0  0.262438  0  3.800994  0  0  0.253594  0  4.048399  0  0  0.265612  0  4.067489  0  0  0.104708  0.245584  0  4.034826  0
C  C62  1  0.26486200  0.04559861  0.08385786  1  0  -0.179814  0  3.721581  0  0  -0.195239  0  3.973336  0  0  -0.202263  0  3.99221  0  0  -0.102088  -0.189555  0  3.958898  0
C  C63  1  0.73514041  0.95439903  0.91614325  1  0  -0.17983  0  3.721682  0  0  -0.195239  0  3.97346  0  0  -0.202262  0  3.992333  0  0  -0.102099  -0.189552  0  3.959023  0
C  C64  1  0.30975557  0.05854333  0.99395684  1  0  -0.06069  0  3.77382  0  0  -0.083008  0  4.025643  0  0  -0.079013  0  4.043978  0  0  -0.088153  -0.08596  0  4.013241  0
C  C65  1  0.69024688  0.94145660  0.00604447  1  0  -0.0607  0  3.773828  0  0  -0.082998  0  4.025641  0  0  -0.079004  0  4.043975  0  0  -0.088143  -0.085949  0  4.013241  0
C  C66  1  0.27232956  0.98842821  0.93895222  1  0  -0.117709  0  3.811688  0  0  -0.097213  0  4.052575  0  0  -0.108555  0  4.075841  0  0  -0.041796  -0.090571  0  4.037414  0
C  C67  1  0.72767339  0.01157057  0.06104863  1  0  -0.117651  0  3.811599  0  0  -0.09718  0  4.052517  0  0  -0.108521  0  4.07578  0  0  -0.041769  -0.090544  0  4.037357  0
C  C68  1  0.19876303  0.89418270  0.97933851  1  0  -0.050641  0  3.783884  0  0  -0.073549  0  4.031009  0  0  -0.069278  0  4.049407  0  0  -0.089112  -0.076514  0  4.018698  0
C  C69  1  0.80123940  0.10581723  0.02066084  1  0  -0.050654  0  3.783802  0  0  -0.073552  0  4.030946  0  0  -0.069276  0  4.04935  0  0  -0.089123  -0.076514  0  4.018634  0
C  C70  1  0.15680236  0.87761526  0.06923834  1  0  -0.172153  0  3.738903  0  0  -0.187783  0  3.991022  0  0  -0.195122  0  4.011796  0  0  -0.099798  -0.182058  0  3.976378  0
C  C71  1  0.84320058  0.12238352  0.93076185  1  0  -0.172216  0  3.73889  0  0  -0.187841  0  3.991001  0  0  -0.195185  0  4.011772  0  0  -0.099819  -0.182119  0  3.976363  0
C  C72  1  0.28688891  0.03221754  0.83818319  1  0  0.614522  0  3.952289  0  0  0.568004  0  4.238352  0  0  0.602694  0  4.232577  0  0  0.184365  0.544691  0  4.241304  0
C  C73  1  0.71311304  0.96778354  0.16181727  1  0  0.614578  0  3.95216  0  0  0.56808  0  4.238219  0  0  0.602771  0  4.232441  0  0  0.184392  0.544771  0  4.241162  0
C  C74  1  0.41718362  0.32574368  0.47936069  1  0  0.16421  0  3.629761  0  0  0.104178  0  3.897343  0  0  0.117886  0  3.911278  0  0  0.141192  0.095458  0  3.887726  0
C  C75  1  0.58281466  0.67425626  0.52063957  1  0  0.164213  0  3.629806  0  0  0.10418  0  3.897377  0  0  0.117893  0  3.911309  0  0  0.141203  0.095474  0  3.887757  0
C  C76  1  0.27315761  0.51694075  0.53408078  1  0  0.015723  0  3.73836  0  0  -0.019569  0  4.008796  0  0  -0.01654  0  4.027187  0  0  0.00019  -0.021892  0  3.996432  0
C  C77  1  0.72684275  0.48305918  0.46591935  1  0  0.015794  0  3.738245  0  0  -0.0195  0  4.008681  0  0  -0.01647  0  4.027069  0  0  0.000172  -0.021822  0  3.996323  0
C  C78  1  0.31464551  0.57931991  0.44982846  1  0  -0.038233  0  3.629806  0  0  -0.079549  0  3.890027  0  0  -0.076573  0  3.906348  0  0  0.005925  -0.081344  0  3.87906  0
C  C79  1  0.68535588  0.42068002  0.55017161  1  0  -0.038252  0  3.629754  0  0  -0.079557  0  3.889958  0  0  -0.076583  0  3.906283  0  0  0.005928  -0.081351  0  3.878987  0
C  C80  1  0.47977377  0.46593845  0.33024858  1  0  0.174825  0  3.796692  0  0  0.166025  0  4.046167  0  0  0.172112  0  4.068964  0  0  0.092459  0.161943  0  4.030674  0
C  C81  1  0.52022451  0.53406149  0.66975167  1  0  0.174907  0  3.796629  0  0  0.166082  0  4.046105  0  0  0.172169  0  4.068904  0  0  0.092428  0.161989  0  4.03063  0
C  C82  1  0.44992570  0.60932023  0.26876599  1  0  -0.137787  0  3.728159  0  0  -0.159396  0  3.981075  0  0  -0.163052  0  4.001048  0  0  -0.094286  -0.157101  0  3.967678  0
C  C83  1  0.55007257  0.39067971  0.73123361  1  0  -0.137776  0  3.728122  0  0  -0.159352  0  3.981028  0  0  -0.163007  0  4.001002  0  0  -0.094267  -0.157046  0  3.96764  0
C  C84  1  0.52160226  0.61990083  0.18569297  1  0  -0.08262  0  3.731517  0  0  -0.101105  0  3.976805  0  0  -0.102084  0  3.997793  0  0  -0.084897  -0.10017  0  3.96243  0
C  C85  1  0.47839705  0.38009911  0.81430656  1  0  -0.082542  0  3.731413  0  0  -0.101055  0  3.976701  0  0  -0.102034  0  3.997688  0  0  -0.084847  -0.100128  0  3.962324  0
C  C86  1  0.62452440  0.48783430  0.16167867  1  0  0.036616  0  3.801904  0  0  0.050629  0  4.032125  0  0  0.049095  0  4.057557  0  0  -0.012906  0.05178  0  4.014794  0
C  C87  1  0.37547646  0.51216449  0.83832165  1  0  0.036572  0  3.801937  0  0  0.050611  0  4.032136  0  0  0.049078  0  4.057567  0  0  -0.012939  0.051774  0  4.014791  0
C  C88  1  0.65246719  0.34451524  0.22403466  1  0  -0.097859  0  3.74042  0  0  -0.116098  0  3.987743  0  0  -0.117821  0  4.009243  0  0  -0.090125  -0.114976  0  3.973325  0
C  C89  1  0.34753212  0.65548469  0.77596487  1  0  -0.097924  0  3.740469  0  0  -0.116164  0  3.987773  0  0  -0.117886  0  4.009274  0  0  -0.09013  -0.115044  0  3.973355  0
C  C90  1  0.58175032  0.33239919  0.30755708  1  0  -0.161651  0  3.733162  0  0  -0.180826  0  3.984301  0  0  -0.185835  0  4.005467  0  0  -0.09716  -0.177424  0  3.970163  0
C  C91  1  0.41824796  0.66760075  0.69244317  1  0  -0.161689  0  3.733253  0  0  -0.180827  0  3.984404  0  0  -0.185836  0  4.005571  0  0  -0.097167  -0.177422  0  3.970271  0
C  C92  1  0.69860501  0.49774614  0.07280702  1  0  0.043176  0  3.788567  0  0  0.057607  0  4.01959  0  0  0.057058  0  4.044102  0  0  -0.008361  0.058001  0  4.003472  0
C  C93  1  0.30139534  0.50225379  0.92719310  1  0  0.043237  0  3.788538  0  0  0.05766  0  4.019562  0  0  0.057111  0  4.044073  0  0  -0.008342  0.05805  0  4.003442  0
C  C94  1  0.61496645  0.60360524  0.99170673  1  0  -0.088052  0  3.726284  0  0  -0.104923  0  3.970626  0  0  -0.107059  0  3.992738  0  0  -0.084134  -0.103902  0  3.955768  0
C  C95  1  0.38503391  0.39639469  0.00829340  1  0  -0.088089  0  3.72631  0  0  -0.104953  0  3.970662  0  0  -0.107089  0  3.992777  0  0  -0.084146  -0.103928  0  3.955799  0
C  C96  1  0.68033543  0.60561706  0.90664487  1  0  -0.139105  0  3.733162  0  0  -0.1588  0  3.982954  0  0  -0.162262  0  4.003234  0  0  -0.088947  -0.156744  0  3.969258  0
C  C97  1  0.31966389  0.39438288  0.09335532  1  0  -0.139067  0  3.733153  0  0  -0.158773  0  3.982921  0  0  -0.162235  0  4.0032  0  0  -0.088946  -0.156713  0  3.96922  0
C  C98  1  0.83330858  0.50228661  0.90100879  1  0  0.174511  0  3.77396  0  0  0.166448  0  4.020284  0  0  0.172498  0  4.041665  0  0  0.094007  0.1627  0  4.006211  0
C  C99  1  0.16669075  0.49771333  0.09899205  1  0  0.174454  0  3.773974  0  0  0.166441  0  4.020239  0  0  0.172491  0  4.041617  0  0  0.094034  0.162687  0  4.006173  0
C  C100  1  0.92064409  0.40078393  0.98148983  1  0  -0.145209  0  3.763516  0  0  -0.165969  0  4.016927  0  0  -0.170065  0  4.038714  0  0  -0.091976  -0.163644  0  4.002549  0
C  C101  1  0.07935626  0.59921601  0.01850964  1  0  -0.145174  0  3.763465  0  0  -0.165951  0  4.01686  0  0  -0.170045  0  4.038643  0  0  -0.091976  -0.163626  0  4.002483  0
C  C102  1  0.85349498  0.39808291  0.06588165  1  0  -0.095791  0  3.736138  0  0  -0.114756  0  3.986118  0  0  -0.116184  0  4.005728  0  0  -0.086502  -0.114102  0  3.973227  0
C  C103  1  0.14650592  0.60191817  0.93411821  1  0  -0.095817  0  3.736121  0  0  -0.11478  0  3.986117  0  0  -0.116205  0  4.005724  0  0  -0.086501  -0.114128  0  3.973223  0
C  C104  1  0.83379042  0.59308356  0.72847841  1  0  -0.053047  0  3.645242  0  0  -0.096681  0  3.907695  0  0  -0.095391  0  3.927024  0  0  0.001679  -0.097265  0  3.894401  0
C  C105  1  0.16620789  0.40691867  0.27152073  1  0  -0.052974  0  3.645357  0  0  -0.09659  0  3.907802  0  0  -0.095301  0  3.927132  0  0  0.00173  -0.097176  0  3.89451  0
C  C106  1  0.93278485  0.53256728  0.66559017  1  0  0.018313  0  3.710895  0  0  -0.014624  0  3.978453  0  0  -0.012291  0  3.997914  0  0  0.002696  -0.015976  0  3.96445  0
C  C107  1  0.06721038  0.46743725  0.33440872  1  0  0.018289  0  3.710912  0  0  -0.014643  0  3.978461  0  0  -0.012311  0  3.997924  0  0  0.002713  -0.015994  0  3.964459  0
C  C108  1  0.03435897  0.38093068  0.80014570  1  0  0.165453  0  3.661413  0  0  0.106135  0  3.923068  0  0  0.120761  0  3.935739  0  0  0.138095  0.096263  0  3.914441  0
C  C109  1  0.96563880  0.61907040  0.19985371  1  0  0.165407  0  3.661459  0  0  0.106112  0  3.923134  0  0  0.120738  0  3.935802  0  0  0.138082  0.09625  0  3.914503  0
C  C110  1  0.21286370  0.10472636  0.51761522  1  0  0.622632  0  3.941323  0  0  0.575264  0  4.230226  0  0  0.609671  0  4.225282  0  0  0.186197  0.551984  0  4.232728  0
C  C111  1  0.78713715  0.89527243  0.48238511  1  0  0.622568  0  3.941416  0  0  0.575175  0  4.23036  0  0  0.60958  0  4.225417  0  0  0.186141  0.551891  0  4.232867  0
N  N112  1  0.33789072  0.35929025  0.55178211  1  0  -0.396141  0  3.264628  0  0  -0.317638  0  3.549557  0  0  -0.340387  0  3.568542  0  0  -0.360211  -0.30219  0  3.53618  0
N  N113  1  0.66210860  0.64070969  0.44821873  1  0  -0.396109  0  3.264553  0  0  -0.317604  0  3.54948  0  0  -0.340355  0  3.568464  0  0  -0.360187  -0.302158  0  3.536103  0
N  N114  1  0.40686073  0.45701134  0.41542027  1  0  -0.097156  0  3.610587  0  0  -0.007733  0  3.821628  0  0  -0.023335  0  3.84857  0  0  -0.221508  0.002501  0  3.803215  0
N  N115  1  0.59313859  0.54298860  0.58457992  1  0  -0.097305  0  3.610632  0  0  -0.007876  0  3.821685  0  0  -0.02348  0  3.848627  0  0  -0.221547  0.002361  0  3.803275  0
N  N116  1  0.89883274  0.49547209  0.81434553  1  0  -0.086658  0  3.582781  0  0  0.00382  0  3.792709  0  0  -0.010607  0  3.816524  0  0  -0.221258  0.013187  0  3.776576  0
N  N117  1  0.10116607  0.50452900  0.18565381  1  0  -0.086641  0  3.582859  0  0  0.003825  0  3.79276  0  0  -0.0106  0  3.81657  0  0  -0.221263  0.01319  0  3.776632  0
N  N118  1  0.05720756  0.39996247  0.71138174  1  0  -0.378749  0  3.225984  0  0  -0.301505  0  3.502997  0  0  -0.32253  0  3.519469  0  0  -0.351968  -0.286865  0  3.491082  0
N  N119  1  0.94278867  0.60003977  0.28861687  1  0  -0.378711  0  3.226047  0  0  -0.301459  0  3.50305  0  0  -0.322484  0  3.519524  0  0  -0.351948  -0.286823  0  3.491138  0
N  N120  1  0.10913717  0.96106078  0.20420793  1  0  -0.424068  0  3.372277  0  0  -0.365732  0  3.608302  0  0  -0.387487  0  3.61988  0  0  -0.410851  -0.350534  0  3.599396  0
N  N121  1  0.89086265  0.03893801  0.79579246  1  0  -0.42411  0  3.372261  0  0  -0.365765  0  3.608295  0  0  -0.387521  0  3.619879  0  0  -0.410863  -0.350571  0  3.599394  0
O  O122  1  0.10051545  0.21165459  0.54311518  1  0  -0.640822  0  1.94948  0  0  -0.579803  0  2.189326  0  0  -0.608347  0  2.181599  0  0  -0.339595  -0.560029  0  2.194255  0
O  O123  1  0.89948594  0.78834534  0.45688423  1  0  -0.640739  0  1.949507  0  0  -0.579708  0  2.189359  0  0  -0.608252  0  2.181629  0  0  -0.339552  -0.559934  0  2.194287  0
O  O124  1  0.34438688  0.02798563  0.56132187  1  0  -0.650035  0  1.944594  0  0  -0.587172  0  2.18174  0  0  -0.614703  0  2.170989  0  0  -0.333706  -0.567773  0  2.188505  0
O  O125  1  0.65561397  0.97201316  0.43867780  1  0  -0.650032  0  1.944611  0  0  -0.58716  0  2.181767  0  0  -0.614693  0  2.171017  0  0  -0.333691  -0.567759  0  2.188531  0
O  O126  1  0.37464897  0.09737632  0.80347044  1  0  -0.634185  0  1.951987  0  0  -0.567942  0  2.191743  0  0  -0.596649  0  2.182793  0  0  -0.33263  -0.548143  0  2.19716  0
O  O127  1  0.62535139  0.90262361  0.19652969  1  0  -0.634242  0  1.951942  0  0  -0.567996  0  2.191683  0  0  -0.596702  0  2.18273  0  0  -0.332641  -0.548197  0  2.197095  0
O  O128  1  0.19890582  0.01720183  0.78747449  1  0  -0.65225  0  1.986987  0  0  -0.588374  0  2.225545  0  0  -0.614787  0  2.214696  0  0  -0.328573  -0.56988  0  2.232155  0
O  O129  1  0.80109563  0.98280039  0.21252642  1  0  -0.652254  0  1.986943  0  0  -0.588411  0  2.225533  0  0  -0.614825  0  2.214685  0  0  -0.328587  -0.569914  0  2.232126  0
