# generated using pymatgen
data_ZnH18C22N2O5
_symmetry_space_group_name_H-M   'P 1'
_cell_length_a   8.15051508
_cell_length_b   10.35259151
_cell_length_c   12.14085401
_cell_angle_alpha   78.04715054
_cell_angle_beta   71.42549881
_cell_angle_gamma   78.92992280
_symmetry_Int_Tables_number   1
_chemical_formula_structural   ZnH18C22N2O5
_chemical_formula_sum   'Zn2 H36 C44 N4 O10'
_cell_volume   941.20058892
_cell_formula_units_Z   2
loop_
 _symmetry_equiv_pos_site_id
 _symmetry_equiv_pos_as_xyz
  1  'x, y, z'
loop_
 _atom_site_type_symbol
 _atom_site_label
 _atom_site_symmetry_multiplicity
 _atom_site_fract_x
 _atom_site_fract_y
 _atom_site_fract_z
 _atom_site_occupancy
 _atom_site_hle17_bader_spin_density
 _atom_site_hle17_ddec_charge
 _atom_site_hle17_ddec_spin_density
 _atom_site_hle17_ddec_sum_bond_order
 _atom_site_hle17_magmom
 _atom_site_hse06_10hf_bader_spin_density
 _atom_site_hse06_10hf_ddec_charge
 _atom_site_hse06_10hf_ddec_spin_density
 _atom_site_hse06_10hf_ddec_sum_bond_order
 _atom_site_hse06_10hf_magmom
 _atom_site_hse06_bader_spin_density
 _atom_site_hse06_ddec_charge
 _atom_site_hse06_ddec_spin_density
 _atom_site_hse06_ddec_sum_bond_order
 _atom_site_hse06_magmom
 _atom_site_pbe_bader_spin_density
 _atom_site_pbe_cm5_charge
 _atom_site_pbe_ddec_charge
 _atom_site_pbe_ddec_spin_density
 _atom_site_pbe_ddec_sum_bond_order
 _atom_site_pbe_magmom
Zn  Zn0  1  0.70582945  0.67116843  0.65516978  1  0  1.03759  0  1.815219  0  0  0.851227  0  2.280329  0  0  0.900824  0  2.223283  0  0  0.676413  0.816945  0  2.319485  0
Zn  Zn1  1  0.29417145  0.32883097  0.34483066  1  0  1.037644  0  1.815158  0  0  0.851276  0  2.280264  0  0  0.900886  0  2.223222  0  0  0.676444  0.816996  0  2.319413  0
H  H2  1  0.02567448  0.67858930  0.40928035  1  0  0.095938  0  0.950651  0  0  0.102318  0  1.016169  0  0  0.105189  0  1.01321  0  0  0.121646  0.100152  0  1.018498  0
H  H3  1  0.97432699  0.32141407  0.59071677  1  0  0.095935  0  0.950615  0  0  0.10228  0  1.016142  0  0  0.105133  0  1.01323  0  0  0.121631  0.100114  0  1.018469  0
H  H4  1  0.17344665  0.85839960  0.26013118  1  0  0.114258  0  0.934897  0  0  0.127105  0  0.987605  0  0  0.130193  0  0.987075  0  0  0.112232  0.124808  0  0.988212  0
H  H5  1  0.82655482  0.14160376  0.73986594  1  0  0.114303  0  0.934923  0  0  0.127156  0  0.987628  0  0  0.130246  0  0.987095  0  0  0.112255  0.124854  0  0.988237  0
H  H6  1  0.04031104  0.09948696  0.27294406  1  0  0.110229  0  0.938277  0  0  0.121446  0  0.998553  0  0  0.124209  0  0.996623  0  0  0.112486  0.119718  0  0.999448  0
H  H7  1  0.95969062  0.90051542  0.72705485  1  0  0.110188  0  0.938323  0  0  0.121458  0  0.998531  0  0  0.124222  0  0.996601  0  0  0.112482  0.11973  0  0.999428  0
H  H8  1  0.79201913  0.25998037  0.37369045  1  0  0.101287  0  0.9758  0  0  0.115742  0  1.033093  0  0  0.11735  0  1.033417  0  0  0.108199  0.114551  0  1.032842  0
H  H9  1  0.20797623  0.74002098  0.62630754  1  0  0.101344  0  0.975762  0  0  0.115765  0  1.033078  0  0  0.117375  0  1.033405  0  0  0.108207  0.114574  0  1.032828  0
H  H10  1  0.53494593  0.30383675  0.54306514  1  0  0.120794  0  0.942164  0  0  0.13308  0  0.997544  0  0  0.136192  0  0.995916  0  0  0.1119  0.130576  0  0.999127  0
H  H11  1  0.46504943  0.69616460  0.45693285  1  0  0.120804  0  0.942196  0  0  0.13311  0  0.997547  0  0  0.136223  0  0.995918  0  0  0.111917  0.130609  0  0.999128  0
H  H12  1  0.33149974  0.21435892  0.73970910  1  0  0.111337  0  0.947861  0  0  0.119409  0  1.011058  0  0  0.121599  0  1.010387  0  0  0.112565  0.117577  0  1.012092  0
H  H13  1  0.66849692  0.78564245  0.26028943  1  0  0.111337  0  0.947806  0  0  0.119415  0  1.011001  0  0  0.121604  0  1.010332  0  0  0.112553  0.117583  0  1.012038  0
H  H14  1  0.22895759  0.01644687  0.88395538  1  0  0.095019  0  1.000835  0  0  0.105295  0  1.062529  0  0  0.107051  0  1.064138  0  0  0.101509  0.103967  0  1.061602  0
H  H15  1  0.77103942  0.98355249  0.11604179  1  0  0.095022  0  1.000821  0  0  0.105254  0  1.062578  0  0  0.107007  0  1.064183  0  0  0.101493  0.103924  0  1.061656  0
H  H16  1  0.38104274  0.78569178  0.84485301  1  0  0.089664  0  0.953633  0  0  0.094783  0  1.022156  0  0  0.097888  0  1.018988  0  0  0.118179  0.092138  0  1.02493  0
H  H17  1  0.61895964  0.21430660  0.15514483  1  0  0.089627  0  0.953635  0  0  0.0948  0  1.022108  0  0  0.09794  0  1.018901  0  0  0.118175  0.092136  0  1.024899  0
H  H18  1  0.42084481  0.37231302  0.00660922  1  0  0.12266  0  0.923683  0  0  0.138233  0  0.980131  0  0  0.141133  0  0.97832  0  0  0.105312  0.136192  0  0.981449  0
H  H19  1  0.57915886  0.62768537  0.99338916  1  0  0.122662  0  0.923678  0  0  0.138228  0  0.980134  0  0  0.141128  0  0.978321  0  0  0.105306  0.136186  0  0.981454  0
H  H20  1  0.28982155  0.52177981  0.97480534  1  0  0.109671  0  0.937662  0  0  0.123349  0  1.000952  0  0  0.124836  0  1.001252  0  0  0.099426  0.122236  0  1.000901  0
H  H21  1  0.71018065  0.47821960  0.02519482  1  0  0.109669  0  0.937624  0  0  0.123319  0  1.000959  0  0  0.124805  0  1.001259  0  0  0.099413  0.122206  0  1.000906  0
H  H22  1  0.26076402  0.19831036  0.08030520  1  0  0.093768  0  0.949446  0  0  0.106533  0  1.006477  0  0  0.109766  0  1.004574  0  0  0.098565  0.104269  0  1.007807  0
H  H23  1  0.73923872  0.80168605  0.91969457  1  0  0.093801  0  0.949489  0  0  0.106528  0  1.006557  0  0  0.109754  0  1.004658  0  0  0.098599  0.104265  0  1.007884  0
H  H24  1  0.01992972  0.07601698  0.09082790  1  0  0.072722  0  0.987752  0  0  0.08238  0  1.056194  0  0  0.084673  0  1.055818  0  0  0.091021  0.080619  0  1.056854  0
H  H25  1  0.98007191  0.92397844  0.90917393  1  0  0.072774  0  0.987702  0  0  0.082423  0  1.056146  0  0  0.084715  0  1.055772  0  0  0.091035  0.08066  0  1.056806  0
H  H26  1  0.83377516  0.16365304  0.95542208  1  0  0.07906  0  0.958125  0  0  0.0936  0  1.01505  0  0  0.096341  0  1.01373  0  0  0.09657  0.091665  0  1.016051  0
H  H27  1  0.16622205  0.83634538  0.04458098  1  0  0.07909  0  0.958165  0  0  0.093634  0  1.015076  0  0  0.096379  0  1.013757  0  0  0.096582  0.091701  0  1.01608  0
H  H28  1  0.89271091  0.36735272  0.81133656  1  0  0.099145  0  0.961338  0  0  0.110504  0  1.021653  0  0  0.113201  0  1.020776  0  0  0.101736  0.108544  0  1.022354  0
H  H29  1  0.10728759  0.63264569  0.18866622  1  0  0.099112  0  0.961313  0  0  0.11052  0  1.021581  0  0  0.113184  0  1.020742  0  0  0.101735  0.108561  0  1.022283  0
H  H30  1  0.14503457  0.60601059  0.82194051  1  0  0.115581  0  0.925116  0  0  0.129729  0  0.986445  0  0  0.131426  0  0.986668  0  0  0.103665  0.128504  0  0.986456  0
H  H31  1  0.85495875  0.39398781  0.17806257  1  0  0.115596  0  0.925158  0  0  0.129715  0  0.986481  0  0  0.13141  0  0.986703  0  0  0.103672  0.12849  0  0.98649  0
H  H32  1  0.27950352  0.50753895  0.71407785  1  0  0.11545  0  0.935495  0  0  0.13313  0  0.989201  0  0  0.13511  0  0.988201  0  0  0.106243  0.131912  0  0.989807  0
H  H33  1  0.72049352  0.49246048  0.28592672  1  0  0.115515  0  0.935517  0  0  0.133175  0  0.989199  0  0  0.135152  0  0.988199  0  0  0.106254  0.131945  0  0.989818  0
H  H34  1  0.77470152  0.51562162  0.49566553  1  0  0.434732  0  0.866493  0  0  0.40203  0  0.932651  0  0  0.413626  0  0.915997  0  0  0.288477  0.39398  0  0.944162  0
H  H35  1  0.22530142  0.48438075  0.50433145  1  0  0.4348  0  0.866396  0  0  0.402062  0  0.932603  0  0  0.413657  0  0.915948  0  0  0.288477  0.39401  0  0.944119  0
H  H36  1  0.64162150  0.46304957  0.62590268  1  0  0.41016  0  0.900943  0  0  0.3772  0  0.97016  0  0  0.389424  0  0.952493  0  0  0.281789  0.368572  0  0.982592  0
H  H37  1  0.35837886  0.53695279  0.37409404  1  0  0.410133  0  0.900927  0  0  0.377188  0  0.97016  0  0  0.38941  0  0.952497  0  0  0.281814  0.368561  0  0.982592  0
C  C38  1  0.97441893  0.78350349  0.41283653  1  0  0.160506  0  3.65376  0  0  0.126811  0  3.911317  0  0  0.135803  0  3.92701  0  0  0.065007  0.120915  0  3.9009  0
C  C39  1  0.02558495  0.21650087  0.58715907  1  0  0.160592  0  3.653692  0  0  0.126955  0  3.911229  0  0  0.135948  0  3.926914  0  0  0.065083  0.121061  0  3.900803  0
C  C40  1  0.05430202  0.88569992  0.32828625  1  0  -0.115882  0  3.720861  0  0  -0.131588  0  3.980699  0  0  -0.13892  0  4.002267  0  0  -0.080005  -0.126921  0  3.96621  0
C  C41  1  0.94570057  0.11430445  0.67171127  1  0  -0.116021  0  3.720903  0  0  -0.131755  0  3.980773  0  0  -0.139084  0  4.002331  0  0  -0.080069  -0.127083  0  3.96628  0
C  C42  1  0.98163051  0.01697913  0.33545413  1  0  -0.050835  0  3.67445  0  0  -0.076897  0  3.927756  0  0  -0.07408  0  3.945367  0  0  -0.063761  -0.078398  0  3.915357  0
C  C43  1  0.01836931  0.98302624  0.66454381  1  0  -0.050804  0  3.674427  0  0  -0.076877  0  3.927759  0  0  -0.074063  0  3.945373  0  0  -0.063735  -0.078379  0  3.915359  0
C  C44  1  0.82880430  0.04617323  0.42747684  1  0  0.027783  0  3.795557  0  0  0.043506  0  4.028795  0  0  0.040876  0  4.053528  0  0  -0.001554  0.044937  0  4.012318  0
C  C45  1  0.17120013  0.95382819  0.57252494  1  0  0.027899  0  3.795387  0  0  0.043573  0  4.028739  0  0  0.040944  0  4.053473  0  0  -0.001506  0.045002  0  4.012264  0
C  C46  1  0.74223313  0.17836725  0.44094156  1  0  -0.092471  0  3.718844  0  0  -0.116883  0  3.973064  0  0  -0.119961  0  3.996925  0  0  -0.082976  -0.11468  0  3.95679  0
C  C47  1  0.25776482  0.82163411  0.55905587  1  0  -0.092552  0  3.718765  0  0  -0.116915  0  3.973019  0  0  -0.119999  0  3.996885  0  0  -0.083009  -0.114711  0  3.956749  0
C  C48  1  0.60039262  0.20263101  0.53478953  1  0  -0.081252  0  3.695252  0  0  -0.105969  0  3.952013  0  0  -0.108828  0  3.973404  0  0  -0.077862  -0.103725  0  3.937585  0
C  C49  1  0.39960921  0.79737035  0.46520705  1  0  -0.081268  0  3.695276  0  0  -0.106035  0  3.951997  0  0  -0.108893  0  3.973388  0  0  -0.077851  -0.103792  0  3.937576  0
C  C50  1  0.53436670  0.09523820  0.62328434  1  0  0.027285  0  3.782564  0  0  0.043645  0  4.016242  0  0  0.041301  0  4.039401  0  0  0.001489  0.044853  0  4.000766  0
C  C51  1  0.46563366  0.90476417  0.37671321  1  0  0.027205  0  3.782797  0  0  0.043665  0  4.016344  0  0  0.041322  0  4.039504  0  0  0.001388  0.044872  0  4.000872  0
C  C52  1  0.39321551  0.11389487  0.72492050  1  0  -0.01978  0  3.646063  0  0  -0.047529  0  3.895805  0  0  -0.043317  0  3.912375  0  0  -0.054495  -0.050064  0  3.884921  0
C  C53  1  0.60678522  0.88610552  0.27507898  1  0  -0.019721  0  3.646148  0  0  -0.047511  0  3.895863  0  0  -0.0433  0  3.912432  0  0  -0.05443  -0.050049  0  3.884985  0
C  C54  1  0.33707018  0.00381638  0.80513984  1  0  -0.129995  0  3.750022  0  0  -0.142217  0  4.000438  0  0  -0.150562  0  4.023975  0  0  -0.086736  -0.136802  0  3.984561  0
C  C55  1  0.66292572  0.99618197  0.19485693  1  0  -0.129966  0  3.750043  0  0  -0.142157  0  4.000507  0  0  -0.150494  0  4.024046  0  0  -0.086697  -0.136741  0  3.984622  0
C  C56  1  0.42106150  0.87565334  0.78477465  1  0  0.143266  0  3.682779  0  0  0.110315  0  3.934827  0  0  0.118749  0  3.950831  0  0  0.054984  0.105054  0  3.92425  0
C  C57  1  0.57894328  0.12434605  0.21522331  1  0  0.143367  0  3.682659  0  0  0.110381  0  3.934693  0  0  0.118791  0  3.950683  0  0  0.055094  0.105134  0  3.924117  0
C  C58  1  0.61305813  0.96227130  0.61037003  1  0  0.123186  0  3.770183  0  0  0.114845  0  4.00727  0  0  0.118996  0  4.029776  0  0  0.116112  0.112156  0  3.992106  0
C  C59  1  0.38694520  0.03772913  0.38963217  1  0  0.123059  0  3.770209  0  0  0.114744  0  4.007246  0  0  0.118896  0  4.029755  0  0  0.116133  0.112055  0  3.992084  0
C  C60  1  0.76156322  0.93718581  0.51074203  1  0  0.118466  0  3.786418  0  0  0.111962  0  4.024223  0  0  0.115761  0  4.047052  0  0  0.113052  0.109327  0  4.008959  0
C  C61  1  0.23844139  0.06281460  0.48925907  1  0  0.118517  0  3.78625  0  0  0.111945  0  4.024194  0  0  0.115746  0  4.047021  0  0  0.113  0.109313  0  4.008928  0
C  C62  1  0.49180651  0.46190445  0.82495204  1  0  0.699782  0  3.856311  0  0  0.654641  0  4.156342  0  0  0.687236  0  4.150303  0  0  0.205855  0.632569  0  4.15944  0
C  C63  1  0.50819181  0.53809494  0.17504814  1  0  0.699663  0  3.856272  0  0  0.65449  0  4.156373  0  0  0.687084  0  4.150334  0  0  0.205811  0.63242  0  4.159468  0
C  C64  1  0.35315202  0.42750604  0.94227679  1  0  -0.307442  0  3.687761  0  0  -0.349351  0  3.927265  0  0  -0.355031  0  3.935287  0  0  -0.163772  -0.345376  0  3.921633  0
C  C65  1  0.64684907  0.57249235  0.05772297  1  0  -0.307407  0  3.687723  0  0  -0.349303  0  3.927257  0  0  -0.354979  0  3.935274  0  0  -0.163769  -0.345328  0  3.921622  0
C  C66  1  0.21481863  0.35116069  0.94020696  1  0  0.083162  0  3.689548  0  0  0.09764  0  3.925105  0  0  0.097764  0  3.949087  0  0  -0.003476  0.097455  0  3.909187  0
C  C67  1  0.78518281  0.64883570  0.05979226  1  0  0.083166  0  3.689653  0  0  0.097648  0  3.925162  0  0  0.097775  0  3.949146  0  0  -0.003501  0.097465  0  3.909243  0
C  C68  1  0.18068994  0.23426443  0.02048941  1  0  -0.109234  0  3.747718  0  0  -0.130167  0  3.996769  0  0  -0.13156  0  4.015655  0  0  -0.092905  -0.129332  0  3.98404  0
C  C69  1  0.81930690  0.76573597  0.97951337  1  0  -0.109306  0  3.747783  0  0  -0.130215  0  3.996844  0  0  -0.131598  0  4.01572  0  0  -0.092938  -0.12938  0  3.984114  0
C  C70  1  0.04461708  0.16645893  0.02708103  1  0  -0.100452  0  3.836013  0  0  -0.114504  0  4.091273  0  0  -0.11616  0  4.111838  0  0  -0.107805  -0.113322  0  4.077672  0
C  C71  1  0.95538585  0.83353650  0.97292135  1  0  -0.100445  0  3.836037  0  0  -0.11448  0  4.091278  0  0  -0.116132  0  4.111837  0  0  -0.107764  -0.113297  0  4.077675  0
C  C72  1  0.94093430  0.21500111  0.95162884  1  0  -0.088553  0  3.824384  0  0  -0.105146  0  4.082067  0  0  -0.106712  0  4.103038  0  0  -0.104356  -0.103714  0  4.067609  0
C  C73  1  0.05906456  0.78499529  0.04837259  1  0  -0.088632  0  3.824483  0  0  -0.105235  0  4.082185  0  0  -0.106806  0  4.103145  0  0  -0.104408  -0.103804  0  4.067731  0
C  C74  1  0.97465196  0.33041027  0.86991925  1  0  -0.129559  0  3.751752  0  0  -0.148631  0  4.000223  0  0  -0.151491  0  4.02202  0  0  -0.09784  -0.146641  0  3.985178  0
C  C75  1  0.02534249  0.66958915  0.13008588  1  0  -0.129474  0  3.751519  0  0  -0.1486  0  3.999973  0  0  -0.151438  0  4.021804  0  0  -0.097806  -0.146605  0  3.984922  0
C  C76  1  0.11029283  0.39950474  0.86321813  1  0  0.07861  0  3.672743  0  0  0.09417  0  3.906439  0  0  0.093977  0  3.930832  0  0  -0.003026  0.094311  0  3.890124  0
C  C77  1  0.88970197  0.60049267  0.13678482  1  0  0.078624  0  3.672743  0  0  0.094213  0  3.906343  0  0  0.094008  0  3.930743  0  0  -0.003  0.094356  0  3.890027  0
C  C78  1  0.14755260  0.52502345  0.77501276  1  0  -0.31328  0  3.700553  0  0  -0.353496  0  3.938713  0  0  -0.35906  0  3.945999  0  0  -0.162607  -0.349732  0  3.933704  0
C  C79  1  0.85244332  0.47497496  0.22498976  1  0  -0.313444  0  3.700763  0  0  -0.353592  0  3.938842  0  0  -0.359141  0  3.946126  0  0  -0.162666  -0.349822  0  3.933836  0
C  C80  1  0.01917579  0.56820283  0.70296277  1  0  0.690505  0  3.883221  0  0  0.640223  0  4.189647  0  0  0.673828  0  4.181397  0  0  0.202701  0.617548  0  4.194559  0
C  C81  1  0.98082125  0.43179658  0.29704098  1  0  0.690412  0  3.883381  0  0  0.640081  0  4.189847  0  0  0.673684  0  4.181595  0  0  0.202613  0.617405  0  4.194757  0
N  N82  1  0.83311650  0.80879845  0.50196215  1  0  -0.350699  0  3.245378  0  0  -0.280676  0  3.513855  0  0  -0.298859  0  3.529374  0  0  -0.312817  -0.268387  0  3.503375  0
N  N83  1  0.16688775  0.19120395  0.49803702  1  0  -0.350709  0  3.245298  0  0  -0.280651  0  3.513743  0  0  -0.298834  0  3.529258  0  0  -0.312813  -0.268364  0  3.503261  0
N  N84  1  0.55574640  0.85579578  0.69008634  1  0  -0.349024  0  3.292609  0  0  -0.273095  0  3.561513  0  0  -0.291557  0  3.57689  0  0  -0.32109  -0.260907  0  3.551142  0
N  N85  1  0.44425950  0.14420462  0.30991202  1  0  -0.34908  0  3.292505  0  0  -0.273194  0  3.561463  0  0  -0.291669  0  3.576867  0  0  -0.321246  -0.261003  0  3.551082  0
O  O86  1  0.52875972  0.58107711  0.80364056  1  0  -0.665739  0  2.049983  0  0  -0.596905  0  2.316603  0  0  -0.625617  0  2.304891  0  0  -0.332076  -0.576485  0  2.324025  0
O  O87  1  0.47123435  0.41892426  0.19635935  1  0  -0.665645  0  2.049959  0  0  -0.596795  0  2.316585  0  0  -0.625514  0  2.304887  0  0  -0.332024  -0.576373  0  2.323998  0
O  O88  1  0.55985822  0.37488844  0.75774785  1  0  -0.650757  0  1.900996  0  0  -0.59927  0  2.118332  0  0  -0.62344  0  2.109274  0  0  -0.337068  -0.582302  0  2.12439  0
O  O89  1  0.44014250  0.62511195  0.24225162  1  0  -0.650755  0  1.901009  0  0  -0.599271  0  2.118385  0  0  -0.62344  0  2.109325  0  0  -0.337088  -0.582303  0  2.124444  0
O  O90  1  0.88315832  0.64943209  0.74400061  1  0  -0.637665  0  2.025532  0  0  -0.569129  0  2.297382  0  0  -0.598146  0  2.285238  0  0  -0.32468  -0.548846  0  2.304822  0
O  O91  1  0.11683888  0.35056631  0.25600081  1  0  -0.637681  0  2.025485  0  0  -0.569109  0  2.29732  0  0  -0.598128  0  2.285182  0  0  -0.324679  -0.548826  0  2.304761  0
O  O92  1  0.04672181  0.52270431  0.60888078  1  0  -0.65157  0  1.986851  0  0  -0.593171  0  2.220677  0  0  -0.618001  0  2.209971  0  0  -0.317862  -0.575949  0  2.227679  0
O  O93  1  0.95328000  0.47729013  0.39112284  1  0  -0.651403  0  1.987096  0  0  -0.593029  0  2.220947  0  0  -0.617861  0  2.210239  0  0  -0.317766  -0.575807  0  2.227949  0
O  O94  1  0.66942219  0.54202786  0.56142825  1  0  -0.83746  0  1.926111  0  0  -0.770235  0  2.142319  0  0  -0.793019  0  2.103057  0  0  -0.57836  -0.754472  0  2.169487  0
O  O95  1  0.33057929  0.45797551  0.43856887  1  0  -0.83752  0  1.926052  0  0  -0.770271  0  2.14233  0  0  -0.793058  0  2.103076  0  0  -0.578402  -0.754513  0  2.1695  0
