# generated using pymatgen
data_CoH6C9S(NO)2
_symmetry_space_group_name_H-M   'P 1'
_cell_length_a   11.92157990
_cell_length_b   12.94245978
_cell_length_c   12.98260000
_cell_angle_alpha   111.02407300
_cell_angle_beta   108.06096555
_cell_angle_gamma   107.76218068
_symmetry_Int_Tables_number   1
_chemical_formula_structural   CoH6C9S(NO)2
_chemical_formula_sum   'Co6 H36 C54 S6 N12 O12'
_cell_volume   1569.94009419
_cell_formula_units_Z   6
loop_
 _symmetry_equiv_pos_site_id
 _symmetry_equiv_pos_as_xyz
  1  'x, y, z'
loop_
 _atom_site_type_symbol
 _atom_site_label
 _atom_site_symmetry_multiplicity
 _atom_site_fract_x
 _atom_site_fract_y
 _atom_site_fract_z
 _atom_site_occupancy
 _atom_site_hle17_ddec_charge
 _atom_site_hle17_ddec_spin_density
 _atom_site_hle17_ddec_sum_bond_order
 _atom_site_hle17_magmom
 _atom_site_hse06_10hf_ddec_charge
 _atom_site_hse06_10hf_ddec_spin_density
 _atom_site_hse06_10hf_ddec_sum_bond_order
 _atom_site_hse06_10hf_magmom
 _atom_site_hse06_ddec_charge
 _atom_site_hse06_ddec_spin_density
 _atom_site_hse06_ddec_sum_bond_order
 _atom_site_hse06_magmom
 _atom_site_pbe_bader_charge
 _atom_site_pbe_bader_spin_density
 _atom_site_pbe_cm5_charge
 _atom_site_pbe_ddec_charge
 _atom_site_pbe_ddec_spin_density
 _atom_site_pbe_ddec_sum_bond_order
 _atom_site_pbe_magmom
Co  Co0  1  0.10130776  0.23355556  0.80868479  1  0.974675  -2.801675  2.039917  -2.517  0.928619  -2.813967  2.488942  -2.574  1.019777  -2.862129  2.401356  -2.667  1.192328  -2.549953  0.688958  0.852417  -2.765366  2.560244  -2.484
Co  Co1  1  0.86748850  0.57557665  0.76640242  1  0.974484  -2.802731  2.040605  -2.517  0.928831  -2.815152  2.489144  -2.574  1.01989  -2.863418  2.401584  -2.667  1.197371  -2.549646  0.689276  0.852908  -2.767187  2.560367  -2.485
Co  Co2  1  0.29227706  0.19117373  0.42534554  1  0.974293  -2.803362  2.038863  -2.517  0.928142  -2.815542  2.487993  -2.574  1.019234  -2.86369  2.400412  -2.668  1.195409  -2.550482  0.688427  0.852392  -2.767801  2.559072  -2.486
Co  Co3  1  0.89869017  0.76644108  0.19131127  1  0.974631  -2.80166  2.039875  -2.517  0.928517  -2.813965  2.488871  -2.574  1.019771  -2.862135  2.401289  -2.667  1.192318  -2.549949  0.688976  0.852416  -2.765363  2.560161  -2.484
Co  Co4  1  0.13251130  0.42442374  0.23359859  1  0.974428  -2.802727  2.040577  -2.517  0.928707  -2.815151  2.489157  -2.574  1.019801  -2.863417  2.401582  -2.667  1.197372  -2.549638  0.689238  0.8528  -2.767181  2.560375  -2.485
Co  Co5  1  0.70772186  0.80882666  0.57465214  1  0.974373  -2.80337  2.038788  -2.517  0.928169  -2.815547  2.487966  -2.574  1.019308  -2.863694  2.400334  -2.668  1.195529  -2.550469  0.688448  0.852423  -2.767796  2.559046  -2.486
H  H6  1  0.24497854  0.07781749  0.84925469  1  0.1064  -0.000179  0.945922  0.0  0.118027  -0.000362  1.001462  0.0  0.120896  -0.000227  1.000255  0.0  0.07428  -0.001336  0.103992  0.116144  -0.000501  1.0021  0.0
H  H7  1  0.16687668  0.77193447  0.92196308  1  0.107621  -0.000178  0.944257  0.0  0.118564  -0.00036  1.000689  0.0  0.121494  -0.000226  0.999406  0.0  0.078802  -0.001342  0.104105  0.116562  -0.000502  1.001524  0.0
H  H8  1  0.39463299  0.14978730  0.22791234  1  0.107417  -0.000173  0.945106  0.0  0.119104  -0.000338  1.000498  0.0  0.121967  -0.000208  0.999294  0.0  0.08452  -0.001264  0.104517  0.117203  -0.000481  1.001207  0.0
H  H9  1  0.75502220  0.92218478  0.15074495  1  0.106391  -0.00018  0.945944  0.0  0.118018  -0.000362  1.001484  0.0  0.120887  -0.000227  1.000278  0.0  0.074722  -0.001335  0.10397  0.116134  -0.000501  1.002124  0.0
H  H10  1  0.83312754  0.22806592  0.07803841  1  0.107641  -0.000181  0.944229  0.0  0.118561  -0.00036  1.000683  0.0  0.12149  -0.000225  0.9994  0.0  0.078842  -0.001342  0.104127  0.116558  -0.000502  1.001517  0.0
H  H11  1  0.60536946  0.85021310  0.77208711  1  0.107416  -0.000172  0.945059  0.0  0.119096  -0.000338  1.000467  0.0  0.121958  -0.000208  0.999262  0.0  0.084489  -0.001264  0.104518  0.117195  -0.000481  1.001175  0.0
H  H12  1  0.00343872  0.10744765  0.36592475  1  0.14469  5.1e-05  0.93336  0.0  0.153082  -0.000251  0.996586  0.0  0.155307  -9.3e-05  0.996294  0.0  0.126119  -0.001116  0.114422  0.151593  -0.000409  0.996814  0.0
H  H13  1  0.89665326  0.25873272  0.89277632  1  0.143558  4.6e-05  0.932989  0.0  0.151678  -0.00025  0.996876  0.0  0.15386  -9.2e-05  0.996509  0.0  0.137286  -0.00115  0.114095  0.150234  -0.000427  0.997101  0.0
H  H14  1  0.63758723  0.63443582  0.74144706  1  0.144022  5e-05  0.933245  0.0  0.152803  -0.000255  0.99621  0.0  0.155033  -9.8e-05  0.99585  0.0  0.10653  -0.001131  0.114536  0.151311  -0.000413  0.99645  0.0
H  H15  1  0.99655874  0.89254806  0.63407083  1  0.144724  5.4e-05  0.933343  0.0  0.153097  -0.000251  0.996587  0.0  0.155322  -9.3e-05  0.996296  0.0  0.126179  -0.001116  0.114429  0.151608  -0.000409  0.996815  0.0
H  H16  1  0.10335090  0.74126580  0.10722680  1  0.143559  4.6e-05  0.933022  0.0  0.151672  -0.00025  0.996913  0.0  0.153852  -9.2e-05  0.996546  0.0  0.137461  -0.00115  0.114099  0.150228  -0.000427  0.997139  0.0
H  H17  1  0.36240686  0.36556551  0.25855189  1  0.143955  5.2e-05  0.933373  0.0  0.152775  -0.000255  0.996284  0.0  0.155006  -9.7e-05  0.995926  0.0  0.106567  -0.001131  0.114545  0.151283  -0.000413  0.996524  0.0
H  H18  1  0.91514899  0.19692206  0.36188799  1  0.138882  0.0001  0.932703  0.0  0.153374  -0.000101  0.985222  0.0  0.156064  -2.1e-05  0.984825  0.0  0.122166  -0.000576  0.109794  0.151233  -0.000185  0.985967  0.0
H  H19  1  0.71881597  0.16547170  0.80308892  1  0.139388  9.9e-05  0.930298  0.0  0.153462  -0.000101  0.983599  0.0  0.156107  -2.2e-05  0.983129  0.0  0.102215  -0.000588  0.110159  0.151395  -0.00018  0.984213  0.0
H  H20  1  0.55279058  0.63709863  0.83383324  1  0.139007  0.000108  0.930712  0.0  0.153804  -9.6e-05  0.983188  0.0  0.156537  -1.7e-05  0.982645  0.0  0.116574  -0.000593  0.110105  0.151677  -0.000186  0.983963  0.0
H  H21  1  0.08484941  0.80307552  0.63810776  1  0.13887  0.000101  0.932639  0.0  0.153378  -0.000101  0.985141  0.0  0.156064  -2e-05  0.984749  0.0  0.12217  -0.000576  0.109779  0.151238  -0.000185  0.985887  0.0
H  H22  1  0.28118861  0.83452588  0.19691552  1  0.13935  0.0001  0.930339  0.0  0.153421  -0.000101  0.983644  0.0  0.156064  -2.1e-05  0.983175  0.0  0.102348  -0.000588  0.110137  0.151354  -0.00018  0.984257  0.0
H  H23  1  0.44720387  0.36289989  0.16616712  1  0.13899  0.000105  0.930746  0.0  0.153778  -9.6e-05  0.983215  0.0  0.156511  -1.6e-05  0.982676  0.0  0.116637  -0.000593  0.11011  0.151652  -0.000186  0.983991  0.0
H  H24  1  0.39667798  0.03108575  0.52043146  1  0.103917  -0.000129  0.956084  0.0  0.115125  -0.000297  1.0156  0.0  0.11812  -0.000169  1.014143  0.0  0.079027  -0.001106  0.099613  0.113098  -0.000424  1.016438  0.0
H  H25  1  0.36612839  0.48881941  0.96921864  1  0.103241  -0.000129  0.957328  0.0  0.114422  -0.000295  1.016756  0.0  0.117387  -0.000168  1.015365  0.0  0.083566  -0.0011  0.099084  0.112402  -0.000429  1.017645  0.0
H  H26  1  0.87678640  0.48003618  0.51129313  1  0.103456  -0.000124  0.957157  0.0  0.115021  -0.000284  1.016202  0.0  0.117888  -0.000158  1.01492  0.0  0.089246  -0.001064  0.099408  0.113024  -0.000408  1.017094  0.0
H  H27  1  0.60332312  0.96891370  0.47956958  1  0.103923  -0.000126  0.956016  0.0  0.115131  -0.000297  1.015541  0.0  0.118125  -0.000169  1.014086  0.0  0.078861  -0.001106  0.09962  0.113106  -0.000424  1.016375  0.0
H  H28  1  0.63386907  0.51117630  0.03078079  1  0.103226  -0.000128  0.95726  0.0  0.11442  -0.000295  1.016685  0.0  0.117384  -0.000168  1.015294  0.0  0.083668  -0.0011  0.099059  0.112399  -0.000429  1.017574  0.0
H  H29  1  0.12321439  0.51996796  0.48871104  1  0.103491  -0.000124  0.95715  0.0  0.115021  -0.000284  1.016235  0.0  0.117907  -0.000158  1.01493  0.0  0.089278  -0.001065  0.09942  0.113025  -0.000408  1.017126  0.0
H  H30  1  0.44494115  0.93413601  0.65301973  1  0.087787  0.000175  0.981929  0.0  0.096385  0.00012  1.047165  0.0  0.098725  0.000123  1.047151  0.0  0.060639  -0.000136  0.092388  0.094674  7.9e-05  1.047226  0.0
H  H31  1  0.51098569  0.71854900  0.06587546  1  0.086921  0.000176  0.981674  0.0  0.095489  0.000125  1.047277  0.0  0.097845  0.000127  1.047263  0.0  0.092765  -0.000125  0.092242  0.093856  8.3e-05  1.047147  0.0
H  H32  1  0.79164253  0.34702334  0.28177632  1  0.086791  0.000173  0.979666  0.0  0.095344  0.00012  1.045328  0.0  0.097683  0.000123  1.045319  0.0  0.089913  -0.000124  0.092345  0.093693  8e-05  1.045348  0.0
H  H33  1  0.55506047  0.06586626  0.34698170  1  0.08779  0.000171  0.981906  0.0  0.096387  0.00012  1.047142  0.0  0.098727  0.000123  1.047129  0.0  0.060979  -0.000136  0.092393  0.094672  7.9e-05  1.047206  0.0
H  H34  1  0.48901260  0.28144483  0.93412431  1  0.086827  0.000174  0.981641  0.0  0.095397  0.000125  1.047251  0.0  0.097754  0.000127  1.047234  0.0  0.092793  -0.000125  0.092214  0.093765  8.3e-05  1.047119  0.0
H  H35  1  0.20836050  0.65298174  0.71822960  1  0.086784  0.000173  0.979653  0.0  0.095334  0.00012  1.045323  0.0  0.097674  0.000123  1.045313  0.0  0.089841  -0.000124  0.092324  0.093681  8e-05  1.04535  0.0
H  H36  1  0.36748466  0.95376073  0.81091803  1  0.077537  0.000115  0.973858  0.0  0.088945  2.5e-05  1.034921  0.0  0.091234  2.1e-05  1.034442  0.0  0.034723  -6e-05  0.09249  0.087229  2e-05  1.035469  0.0
H  H37  1  0.41360946  0.85737015  0.04594987  1  0.077114  0.000117  0.973717  0.0  0.088241  2.5e-05  1.034932  0.0  0.090511  2.2e-05  1.034489  0.0  0.073886  -5.4e-05  0.092528  0.086666  2e-05  1.035112  0.0
H  H38  1  0.55542048  0.18848843  0.14289582  1  0.077246  0.000116  0.972916  0.0  0.088915  2.6e-05  1.033499  0.0  0.091269  2.2e-05  1.032967  0.0  0.072376  -5.2e-05  0.092849  0.087198  2e-05  1.034008  0.0
H  H39  1  0.63251696  0.04624154  0.18908339  1  0.077544  0.00012  0.973819  0.0  0.088956  2.5e-05  1.034874  0.0  0.091246  2.1e-05  1.034396  0.0  0.034731  -6e-05  0.092499  0.08724  2e-05  1.035422  0.0
H  H40  1  0.58639376  0.14262649  0.95405232  1  0.077184  0.000125  0.973578  0.0  0.088311  2.5e-05  1.034784  0.0  0.090582  2.1e-05  1.034339  0.0  0.073784  -5.4e-05  0.09257  0.086735  2e-05  1.034966  0.0
H  H41  1  0.44458608  0.81151665  0.85710956  1  0.07734  0.000118  0.972775  0.0  0.088945  2.6e-05  1.033434  0.0  0.091299  2.1e-05  1.032902  0.0  0.072324  -5.2e-05  0.092878  0.087227  2e-05  1.033943  0.0
C  C42  1  0.27703479  0.06694788  0.77771207  1  -0.154216  -0.003453  3.767018  -0.004  -0.173823  -0.001651  4.020292  -0.002  -0.177759  -0.000937  4.041142  -0.001  -0.032313  -0.005175  -0.097183  -0.17013  -0.002712  4.005131  -0.003
C  C43  1  0.21001173  0.71103016  0.93285191  1  -0.155269  -0.003482  3.767027  -0.004  -0.174696  -0.001638  4.020367  -0.002  -0.178652  -0.000917  4.041184  -0.001  -0.080075  -0.005213  -0.097602  -0.17112  -0.002702  4.005426  -0.003
C  C44  1  0.49859091  0.22162964  0.28887648  1  -0.15574  -0.003421  3.767028  -0.004  -0.17581  -0.001616  4.020867  -0.002  -0.17968  -0.000903  4.041686  -0.001  -0.009048  -0.005172  -0.098236  -0.172447  -0.002692  4.005945  -0.003
C  C45  1  0.72296502  0.93305252  0.22228509  1  -0.154264  -0.003422  3.766894  -0.004  -0.173885  -0.001651  4.020171  -0.002  -0.177818  -0.000936  4.041027  -0.001  -0.032889  -0.005176  -0.097166  -0.170197  -0.002711  4.005006  -0.003
C  C46  1  0.78998937  0.28896930  0.06714913  1  -0.155216  -0.003435  3.767135  -0.004  -0.174632  -0.001639  4.020485  -0.002  -0.178589  -0.000917  4.041304  -0.001  -0.079925  -0.005212  -0.097609  -0.171055  -0.002701  4.005538  -0.003
C  C47  1  0.50141024  0.77837169  0.71112293  1  -0.155676  -0.003421  3.76712  -0.004  -0.175702  -0.001617  4.020943  -0.002  -0.17957  -0.000905  4.041759  -0.001  -0.008903  -0.005172  -0.09817  -0.172337  -0.002692  4.006018  -0.003
C  C48  1  0.17827324  0.21135895  0.60368908  1  0.313733  0.007361  3.841967  0.004  0.29822  -0.006897  4.143034  -0.009  0.320132  -0.005332  4.158534  -0.007  0.870059  -0.011377  0.207766  0.282218  -0.007777  4.131446  -0.01
C  C49  1  0.96715862  0.39252630  0.78895241  1  0.314533  0.007817  3.842485  0.004  0.298658  -0.006867  4.14397  -0.009  0.320555  -0.005311  4.159496  -0.007  0.892547  -0.01117  0.208269  0.282837  -0.007732  4.132122  -0.01
C  C50  1  0.57491870  0.39637945  0.60699806  1  0.31299  0.007953  3.844669  0.004  0.29683  -0.006768  4.146856  -0.009  0.318642  -0.005222  4.16246  -0.007  0.907351  -0.01128  0.207611  0.280982  -0.007783  4.13516  -0.01
C  C51  1  0.82172744  0.78864145  0.39630987  1  0.313662  0.007374  3.841944  0.004  0.298165  -0.006896  4.142994  -0.009  0.320072  -0.005333  4.158504  -0.007  0.869974  -0.011377  0.207754  0.282168  -0.007777  4.131401  -0.01
C  C52  1  0.03284207  0.60747409  0.21104885  1  0.3145  0.00782  3.842499  0.004  0.298622  -0.006867  4.143982  -0.009  0.320521  -0.005309  4.15951  -0.007  0.892564  -0.01117  0.208265  0.2828  -0.007732  4.13214  -0.01
C  C53  1  0.42507846  0.60362094  0.39300142  1  0.312819  0.007945  3.844737  0.004  0.296652  -0.006768  4.146926  -0.009  0.318464  -0.005223  4.162538  -0.007  0.907356  -0.01128  0.207519  0.280805  -0.007783  4.13523  -0.01
C  C54  1  0.29066288  0.10608672  0.60934833  1  0.160831  -0.001357  3.811069  -0.002  0.16524  -0.003111  4.051812  -0.004  0.170053  -0.001972  4.076917  -0.003  0.32445  -0.007781  0.080192  0.161713  -0.004397  4.034362  -0.006
C  C55  1  0.18482064  0.50305197  0.89390829  1  0.162603  -0.001344  3.809564  -0.002  0.166105  -0.003139  4.051139  -0.005  0.170969  -0.001993  4.076208  -0.003  0.30027  -0.007873  0.081011  0.162307  -0.004449  4.03407  -0.006
C  C56  1  0.68142406  0.39076985  0.49666813  1  0.16149  -0.001443  3.811832  -0.003  0.165413  -0.003158  4.052801  -0.005  0.170285  -0.00201  4.077804  -0.003  0.318521  -0.007795  0.080499  0.161779  -0.004415  4.035516  -0.006
C  C57  1  0.70933733  0.89391273  0.39065015  1  0.160823  -0.001322  3.811175  -0.002  0.165248  -0.003111  4.051875  -0.004  0.170064  -0.00197  4.076987  -0.003  0.32447  -0.007782  0.080224  0.16172  -0.004397  4.034419  -0.006
C  C58  1  0.81517823  0.49694655  0.10608870  1  0.162771  -0.001302  3.809417  -0.002  0.166267  -0.003139  4.050996  -0.005  0.171135  -0.001992  4.076064  -0.003  0.300277  -0.007874  0.081111  0.16247  -0.004448  4.033929  -0.006
C  C59  1  0.31857315  0.60923242  0.50333205  1  0.1615  -0.001433  3.811731  -0.003  0.165442  -0.003158  4.052713  -0.005  0.170315  -0.002009  4.077719  -0.003  0.318379  -0.007796  0.08048  0.161807  -0.004416  4.035435  -0.006
C  C60  1  0.24944087  0.12042613  0.70279212  1  0.158888  -0.00144  3.805429  -0.003  0.162993  -0.003404  4.045812  -0.005  0.167895  -0.002252  4.070639  -0.003  0.389168  -0.007891  0.081449  0.159089  -0.004759  4.028663  -0.006
C  C61  1  0.12912244  0.58253500  0.87953569  1  0.157487  -0.001484  3.80637  -0.003  0.162438  -0.003445  4.046056  -0.005  0.167296  -0.002289  4.070877  -0.003  0.374901  -0.008062  0.080999  0.158533  -0.004792  4.028919  -0.006
C  C62  1  0.54630339  0.29683962  0.41721864  1  0.159322  -0.001537  3.804926  -0.003  0.164319  -0.003441  4.043936  -0.005  0.169202  -0.002284  4.068688  -0.003  0.330132  -0.008211  0.082112  0.160521  -0.004799  4.026756  -0.007
C  C63  1  0.75056070  0.87957426  0.29720785  1  0.15886  -0.001473  3.805389  -0.003  0.162983  -0.003404  4.045741  -0.005  0.167871  -0.00225  4.070588  -0.003  0.389275  -0.007891  0.081459  0.159093  -0.004759  4.028575  -0.006
C  C64  1  0.87087866  0.41746445  0.12046458  1  0.157452  -0.00153  3.806302  -0.003  0.162418  -0.003445  4.045961  -0.005  0.167275  -0.002286  4.070783  -0.003  0.374869  -0.008062  0.081004  0.158513  -0.004792  4.028823  -0.007
C  C65  1  0.45369834  0.70316640  0.58278108  1  0.15936  -0.001547  3.804936  -0.003  0.164273  -0.003442  4.044056  -0.005  0.169157  -0.002284  4.068811  -0.003  0.330456  -0.00821  0.082109  0.160475  -0.004799  4.026876  -0.007
C  C66  1  0.01415004  0.20189900  0.39269517  1  -0.32004  -0.003554  3.629481  -0.007  -0.351282  -0.003118  3.874348  -0.005  -0.357426  -0.002021  3.878202  -0.003  -0.151907  -0.008411  -0.146818  -0.346878  -0.004386  3.872574  -0.006
C  C67  1  0.81280683  0.19113718  0.79839142  1  -0.317231  -0.003532  3.62365  -0.007  -0.347874  -0.0031  3.869662  -0.005  -0.353654  -0.002008  3.872998  -0.003  -0.134251  -0.008286  -0.146202  -0.343732  -0.004332  3.868219  -0.006
C  C68  1  0.62153475  0.60709168  0.80855258  1  -0.318799  -0.003568  3.628093  -0.007  -0.351033  -0.00314  3.874199  -0.005  -0.35703  -0.002038  3.8777  -0.003  -0.117356  -0.0084  -0.147232  -0.346679  -0.004424  3.872549  -0.006
C  C69  1  0.98584789  0.79809764  0.60730088  1  -0.320014  -0.003562  3.629367  -0.007  -0.351261  -0.003119  3.874266  -0.005  -0.3574  -0.002026  3.878111  -0.003  -0.151956  -0.008411  -0.146797  -0.346856  -0.004386  3.872492  -0.006
C  C70  1  0.18719650  0.80886321  0.20161213  1  -0.317077  -0.003532  3.623618  -0.007  -0.347706  -0.0031  3.869588  -0.005  -0.353476  -0.002009  3.872912  -0.003  -0.134419  -0.008286  -0.146143  -0.343564  -0.004332  3.868143  -0.006
C  C71  1  0.37845924  0.39290590  0.19144500  1  -0.318688  -0.003569  3.628221  -0.007  -0.350893  -0.00314  3.874263  -0.005  -0.356893  -0.00204  3.877773  -0.003  -0.117297  -0.008399  -0.147235  -0.346543  -0.004424  3.872616  -0.006
C  C72  1  0.36354519  0.04079220  0.59116455  1  -0.157192  -0.003254  3.770205  -0.004  -0.181432  -0.001654  4.027473  -0.002  -0.185859  -0.00097  4.049325  -0.001  -0.007148  -0.005436  -0.102047  -0.177371  -0.002747  4.010827  -0.003
C  C73  1  0.32304126  0.54998897  0.95925711  1  -0.157074  -0.003349  3.770114  -0.004  -0.180933  -0.00168  4.027716  -0.002  -0.185411  -0.000988  4.049664  -0.001  -0.005891  -0.005469  -0.102055  -0.177047  -0.00276  4.012147  -0.003
C  C74  1  0.77253012  0.40904582  0.44998416  1  -0.157685  -0.003249  3.769665  -0.004  -0.182179  -0.00163  4.027366  -0.002  -0.186511  -0.000949  4.049274  -0.001  -0.017689  -0.005346  -0.102146  -0.178461  -0.002682  4.011806  -0.003
C  C75  1  0.63645456  0.95920632  0.40883346  1  -0.1572  -0.003294  3.770255  -0.004  -0.181449  -0.001654  4.027518  -0.002  -0.185874  -0.00097  4.049371  -0.001  -0.007199  -0.005435  -0.102085  -0.177389  -0.002746  4.010869  -0.003
C  C76  1  0.67695662  0.45000580  0.04074211  1  -0.157145  -0.003382  3.770159  -0.004  -0.181021  -0.00168  4.027776  -0.002  -0.185499  -0.000987  4.049722  -0.001  -0.005887  -0.005466  -0.102069  -0.177136  -0.002759  4.012207  -0.003
C  C77  1  0.22747208  0.59096113  0.55001834  1  -0.157727  -0.003252  3.769838  -0.004  -0.1822  -0.00163  4.027561  -0.002  -0.186547  -0.000948  4.049462  -0.001  -0.017347  -0.005345  -0.102187  -0.178482  -0.002682  4.012001  -0.003
C  C78  1  0.39020230  0.98729747  0.66569321  1  -0.078647  -0.001123  3.79717  -0.001  -0.096391  -0.000526  4.056765  -0.001  -0.098634  -0.000113  4.080737  0.0  -0.04362  -0.002666  -0.10355  -0.094457  -0.001238  4.039118  -0.001
C  C79  1  0.40303073  0.67814202  0.01258764  1  -0.078903  -0.001101  3.799018  -0.001  -0.096732  -0.00051  4.058962  -0.001  -0.099023  -9.3e-05  4.082969  0.0  -0.048265  -0.002606  -0.104077  -0.095049  -0.001207  4.04192  -0.001
C  C80  1  0.72424403  0.33426793  0.32201298  1  -0.076321  -0.001112  3.79639  -0.001  -0.093974  -0.000535  4.056188  -0.001  -0.0962  -0.000122  4.080184  0.0  -0.045111  -0.00267  -0.103574  -0.092304  -0.00124  4.039538  -0.001
C  C81  1  0.60979886  0.01270386  0.33430852  1  -0.078597  -0.001083  3.797102  -0.001  -0.096336  -0.000526  4.056695  -0.001  -0.098578  -0.000113  4.080664  0.0  -0.04374  -0.002666  -0.103511  -0.094401  -0.001239  4.039052  -0.001
C  C82  1  0.59697202  0.32185369  0.98741330  1  -0.078723  -0.001067  3.799154  -0.001  -0.09655  -0.00051  4.059086  -0.001  -0.09884  -9.4e-05  4.08309  0.0  -0.048303  -0.002606  -0.104059  -0.094867  -0.001207  4.042044  -0.001
C  C83  1  0.27575853  0.66573621  0.67798938  1  -0.076382  -0.001114  3.796384  -0.001  -0.094013  -0.000535  4.056133  -0.001  -0.096241  -0.000124  4.080135  0.0  -0.045373  -0.00267  -0.10359  -0.092344  -0.00124  4.039482  -0.001
C  C84  1  0.34658440  0.99930493  0.75653482  1  -0.084621  -0.000759  3.813946  -0.001  -0.098215  -0.000603  4.068545  -0.001  -0.100782  -0.000249  4.092268  0.0  -0.027209  -0.002643  -0.103214  -0.096402  -0.001218  4.051898  -0.001
C  C85  1  0.34728301  0.75733543  0.00045514  1  -0.082645  -0.000799  3.814317  -0.001  -0.095748  -0.000624  4.068373  -0.001  -0.098351  -0.000267  4.092216  0.0  -0.050449  -0.00269  -0.102863  -0.09386  -0.001255  4.05142  -0.001
C  C86  1  0.58932894  0.24301457  0.24280914  1  -0.084454  -0.000767  3.815955  -0.001  -0.098107  -0.000601  4.070688  -0.001  -0.100753  -0.000253  4.094413  0.0  -0.10724  -0.002566  -0.103078  -0.09625  -0.001178  4.054314  -0.001
C  C87  1  0.65341634  0.00069733  0.24346558  1  -0.084641  -0.000798  3.813814  -0.001  -0.098236  -0.000602  4.068417  -0.001  -0.100805  -0.00025  4.092139  0.0  -0.027225  -0.002643  -0.103249  -0.096421  -0.001218  4.051767  -0.001
C  C88  1  0.65272162  0.24266403  0.99954537  1  -0.082816  -0.000848  3.814521  -0.001  -0.095926  -0.000624  4.068583  -0.001  -0.09853  -0.000269  4.092427  0.0  -0.050616  -0.002689  -0.102893  -0.094039  -0.001255  4.051632  -0.001
C  C89  1  0.41067409  0.75699051  0.75719215  1  -0.084547  -0.000766  3.81595  -0.001  -0.098152  -0.0006  4.070663  -0.001  -0.100802  -0.00025  4.094393  0.0  -0.107544  -0.002566  -0.103095  -0.096295  -0.001178  4.054289  -0.001
C  C90  1  0.08685868  0.25971217  0.33467089  1  0.712555  0.017497  3.815907  0.013  0.677651  -0.002913  4.107249  -0.003  0.718092  -0.002436  4.100325  -0.003  1.5505  -0.001469  0.219549  0.646842  -0.00173  4.111818  -0.001
C  C91  1  0.82756444  0.07495317  0.74032559  1  0.714884  0.017489  3.811561  0.013  0.678942  -0.002939  4.104543  -0.003  0.71937  -0.002465  4.097443  -0.003  1.546096  -0.001796  0.220403  0.648259  -0.001997  4.109132  -0.001
C  C92  1  0.75271898  0.66558812  0.92490864  1  0.713619  0.017456  3.814621  0.013  0.678719  -0.002921  4.106203  -0.003  0.719188  -0.002455  4.09918  -0.003  1.53442  -0.001833  0.220851  0.647981  -0.00205  4.110752  -0.001
C  C93  1  0.91314018  0.74028635  0.66532611  1  0.712509  0.017512  3.815988  0.013  0.677608  -0.002912  4.107336  -0.003  0.718044  -0.002434  4.100416  -0.003  1.550439  -0.001469  0.219491  0.6468  -0.001729  4.111904  -0.001
C  C94  1  0.17243572  0.92504442  0.25967683  1  0.714809  0.017488  3.811572  0.013  0.678871  -0.002939  4.104548  -0.003  0.719299  -0.002459  4.097444  -0.003  1.545991  -0.001797  0.220364  0.648188  -0.001996  4.109137  -0.001
C  C95  1  0.24727636  0.33441040  0.07508966  1  0.71359  0.017456  3.81457  0.013  0.678625  -0.00292  4.10624  -0.003  0.719097  -0.002456  4.099219  -0.003  1.534585  -0.001832  0.220837  0.647887  -0.002049  4.110786  -0.001
S  S96  1  0.09876327  0.29435583  0.56361336  1  0.032092  -0.000311  2.332213  -0.003  0.01956  -0.003311  2.662596  -0.005  0.015446  -0.001921  2.661328  -0.003  0.151601  -0.011561  0.04308  0.023342  -0.005055  2.663813  -0.007
S  S97  1  0.80464143  0.26980759  0.70610143  1  0.030262  -0.000263  2.334057  -0.004  0.018104  -0.003319  2.664547  -0.005  0.013831  -0.001926  2.66313  -0.003  0.136613  -0.01171  0.042809  0.021754  -0.005141  2.665296  -0.007
S  S98  1  0.53561209  0.43593632  0.72957008  1  0.030969  -0.00029  2.336871  -0.004  0.018611  -0.003375  2.66861  -0.005  0.014433  -0.001977  2.667242  -0.003  0.13414  -0.011305  0.042887  0.022245  -0.004942  2.669862  -0.007
S  S99  1  0.90123290  0.70564081  0.43638296  1  0.032072  -0.000308  2.332182  -0.003  0.019547  -0.003311  2.662565  -0.005  0.015432  -0.001919  2.661293  -0.003  0.151575  -0.011561  0.043081  0.023326  -0.005055  2.663776  -0.007
S  S100  1  0.19535843  0.73019468  0.29390566  1  0.030207  -0.000256  2.33401  -0.003  0.018058  -0.003321  2.664472  -0.005  0.013779  -0.001937  2.663053  -0.003  0.136477  -0.011708  0.042813  0.021701  -0.00514  2.665233  -0.007
S  S101  1  0.46438242  0.56406407  0.27042942  1  0.030977  -0.000286  2.33683  -0.004  0.018604  -0.003375  2.66857  -0.005  0.014427  -0.001978  2.667199  -0.003  0.134117  -0.011304  0.042884  0.022236  -0.004942  2.669828  -0.007
N  N102  1  0.17845281  0.18771987  0.69751249  1  -0.488832  -0.055766  3.251259  -0.083  -0.454207  -0.039512  3.56329  -0.048  -0.490413  -0.029984  3.574462  -0.035  -1.205754  -0.094063  -0.379568  -0.425918  -0.048645  3.555563  -0.06
N  N103  1  0.99085176  0.51017622  0.81249911  1  -0.488526  -0.056193  3.253424  -0.084  -0.454124  -0.039793  3.565373  -0.049  -0.490296  -0.030218  3.576535  -0.036  -1.198471  -0.094799  -0.380009  -0.425943  -0.048969  3.557599  -0.061
N  N104  1  0.48079929  0.30213430  0.48951842  1  -0.487859  -0.05587  3.25285  -0.084  -0.453233  -0.039575  3.564588  -0.048  -0.48937  -0.030058  3.575779  -0.035  -1.191285  -0.0943  -0.379323  -0.425064  -0.04875  3.556771  -0.06
N  N105  1  0.82154658  0.81228146  0.30248719  1  -0.4887  -0.055767  3.251217  -0.083  -0.454069  -0.039511  3.563214  -0.048  -0.490297  -0.029983  3.57443  -0.035  -1.205701  -0.094063  -0.379547  -0.425812  -0.048644  3.555503  -0.06
N  N106  1  0.00914892  0.48982417  0.18750215  1  -0.488505  -0.056193  3.253407  -0.084  -0.454083  -0.039795  3.565336  -0.049  -0.490268  -0.030221  3.576502  -0.036  -1.19849  -0.094802  -0.380007  -0.425908  -0.04897  3.557565  -0.061
N  N107  1  0.51919963  0.69786609  0.51048080  1  -0.48789  -0.055865  3.252875  -0.084  -0.45323  -0.039574  3.564647  -0.048  -0.489374  -0.030058  3.575832  -0.035  -1.191282  -0.0943  -0.379347  -0.425063  -0.04875  3.556832  -0.06
N  N108  1  0.24535699  0.16589442  0.54862623  1  -0.518149  -0.053522  3.324737  -0.082  -0.484442  -0.037071  3.642807  -0.045  -0.521314  -0.027841  3.65503  -0.032  -1.208224  -0.088762  -0.384652  -0.455782  -0.046009  3.634112  -0.057
N  N109  1  0.07977740  0.38254242  0.83426246  1  -0.518116  -0.054153  3.328057  -0.083  -0.484326  -0.037502  3.646955  -0.046  -0.521277  -0.028206  3.659075  -0.033  -1.195986  -0.089243  -0.385571  -0.455627  -0.046404  3.638411  -0.058
N  N110  1  0.69722185  0.45180912  0.61700682  1  -0.517697  -0.05372  3.328241  -0.082  -0.483589  -0.037258  3.646261  -0.045  -0.5205  -0.028032  3.658657  -0.032  -1.206391  -0.089054  -0.385358  -0.454819  -0.046165  3.637409  -0.057
N  N111  1  0.75464187  0.83410410  0.45137153  1  -0.518151  -0.053526  3.324769  -0.082  -0.484444  -0.037072  3.642833  -0.045  -0.521324  -0.027843  3.655055  -0.032  -1.208163  -0.088759  -0.384684  -0.455785  -0.04601  3.634125  -0.057
N  N112  1  0.92022147  0.61745610  0.16573761  1  -0.518201  -0.054161  3.328114  -0.083  -0.484398  -0.037504  3.647003  -0.046  -0.521376  -0.028209  3.659153  -0.033  -1.195935  -0.089248  -0.385657  -0.455725  -0.046407  3.638487  -0.058
N  N113  1  0.30277536  0.54819314  0.38299412  1  -0.517523  -0.053717  3.328101  -0.082  -0.483384  -0.037256  3.646095  -0.045  -0.520305  -0.02803  3.658499  -0.032  -1.206417  -0.089054  -0.385223  -0.454619  -0.046163  3.637245  -0.057
O  O114  1  0.03738974  0.31419706  0.28379260  1  -0.595562  -0.050657  2.071792  -0.087  -0.555536  -0.039791  2.341959  -0.062  -0.596097  -0.029492  2.325872  -0.046  -1.146822  -0.099526  -0.303877  -0.52328  -0.050455  2.353105  -0.078
O  O115  1  0.72346176  0.96967102  0.68533906  1  -0.596433  -0.050712  2.069773  -0.087  -0.556067  -0.039873  2.340461  -0.062  -0.596737  -0.029547  2.324407  -0.046  -1.151729  -0.099683  -0.30426  -0.523923  -0.050558  2.351686  -0.078
O  O116  1  0.75383428  0.71581871  0.02990108  1  -0.596237  -0.05052  2.070515  -0.087  -0.556007  -0.039743  2.340527  -0.062  -0.596658  -0.029451  2.324406  -0.045  -1.141283  -0.09922  -0.30429  -0.52381  -0.050329  2.351718  -0.078
O  O117  1  0.96260825  0.68580145  0.71620568  1  -0.595556  -0.05066  2.071772  -0.087  -0.555553  -0.039793  2.341962  -0.062  -0.596102  -0.029492  2.325867  -0.046  -1.146787  -0.099526  -0.303879  -0.523294  -0.050456  2.353108  -0.078
O  O118  1  0.27653986  0.03033125  0.31466237  1  -0.59643  -0.050719  2.06975  -0.087  -0.556074  -0.039877  2.340431  -0.062  -0.596741  -0.029549  2.324379  -0.046  -1.151695  -0.099691  -0.304258  -0.523929  -0.050562  2.35165  -0.078
O  O119  1  0.24616012  0.28417793  0.97009705  1  -0.596259  -0.05052  2.070487  -0.087  -0.556026  -0.039743  2.340546  -0.062  -0.596655  -0.02945  2.3244  -0.045  -1.141433  -0.099217  -0.304287  -0.523809  -0.050328  2.351728  -0.078
O  O120  1  0.19246047  0.25346709  0.33751163  1  -0.615458  -0.047176  2.094733  -0.079  -0.582619  -0.04047  2.378163  -0.059  -0.624127  -0.030835  2.360513  -0.044  -1.151639  -0.098247  -0.312267  -0.549786  -0.050143  2.3905  -0.073
O  O121  1  0.93931911  0.08360424  0.74665698  1  -0.616739  -0.047102  2.092651  -0.079  -0.583366  -0.040395  2.376525  -0.059  -0.62491  -0.030763  2.358838  -0.044  -1.14895  -0.09784  -0.31264  -0.550578  -0.049904  2.388859  -0.073
O  O122  1  0.85583164  0.66332178  0.91629285  1  -0.616249  -0.046852  2.092336  -0.078  -0.583386  -0.040174  2.375699  -0.058  -0.624793  -0.030595  2.357969  -0.044  -1.146444  -0.097745  -0.313127  -0.550572  -0.049822  2.388033  -0.073
O  O123  1  0.80753928  0.74653143  0.66248638  1  -0.615488  -0.047177  2.094784  -0.079  -0.582634  -0.04047  2.378206  -0.059  -0.62415  -0.030836  2.360551  -0.044  -1.151698  -0.098256  -0.312261  -0.549803  -0.050144  2.390543  -0.073
O  O124  1  0.06068287  0.91639522  0.25334355  1  -0.616724  -0.047097  2.092681  -0.079  -0.583338  -0.040391  2.376534  -0.059  -0.624898  -0.030761  2.358855  -0.044  -1.14889  -0.097832  -0.312643  -0.550569  -0.049902  2.38887  -0.073
O  O125  1  0.14416240  0.33667767  0.08370233  1  -0.616214  -0.046851  2.092305  -0.078  -0.583327  -0.040173  2.375702  -0.058  -0.624734  -0.030594  2.35796  -0.044  -1.146543  -0.097744  -0.3131  -0.55051  -0.049821  2.388031  -0.073
