# generated using pymatgen
data_CdH30C28S2(NO3)2
_symmetry_space_group_name_H-M   'P 1'
_cell_length_a   10.92776483
_cell_length_b   11.76995297
_cell_length_c   12.17994163
_cell_angle_alpha   118.90385803
_cell_angle_beta   94.50463796
_cell_angle_gamma   89.98406177
_symmetry_Int_Tables_number   1
_chemical_formula_structural   CdH30C28S2(NO3)2
_chemical_formula_sum   'Cd2 H60 C56 S4 N4 O12'
_cell_volume   1365.91864600
_cell_formula_units_Z   2
loop_
 _symmetry_equiv_pos_site_id
 _symmetry_equiv_pos_as_xyz
  1  'x, y, z'
loop_
 _atom_site_type_symbol
 _atom_site_label
 _atom_site_symmetry_multiplicity
 _atom_site_fract_x
 _atom_site_fract_y
 _atom_site_fract_z
 _atom_site_occupancy
 _atom_site_hle17_bader_spin_density
 _atom_site_hle17_ddec_charge
 _atom_site_hle17_ddec_spin_density
 _atom_site_hle17_ddec_sum_bond_order
 _atom_site_hle17_magmom
 _atom_site_hse06_10hf_bader_spin_density
 _atom_site_hse06_10hf_ddec_charge
 _atom_site_hse06_10hf_ddec_spin_density
 _atom_site_hse06_10hf_ddec_sum_bond_order
 _atom_site_hse06_10hf_magmom
 _atom_site_hse06_bader_spin_density
 _atom_site_hse06_ddec_charge
 _atom_site_hse06_ddec_spin_density
 _atom_site_hse06_ddec_sum_bond_order
 _atom_site_hse06_magmom
 _atom_site_pbe_bader_spin_density
 _atom_site_pbe_cm5_charge
 _atom_site_pbe_ddec_charge
 _atom_site_pbe_ddec_spin_density
 _atom_site_pbe_ddec_sum_bond_order
 _atom_site_pbe_magmom
Cd  Cd0  1  0.74999895  0.95235144  0.00003658  1  0  1.158036  0  1.680955  0  0  0.969242  0  2.12407  0  0  1.02265  0  2.072048  0  0  0.773714  0.931352  0  2.159639  0
Cd  Cd1  1  0.25000052  0.04764936  0.99996484  1  0  1.158012  0  1.680934  0  0  0.969225  0  2.124039  0  0  1.022635  0  2.072015  0  0  0.773709  0.931334  0  2.159607  0
H  H2  1  0.62183839  0.80332546  0.78134303  1  0  0.410963  0  0.901809  0  0  0.375461  0  0.973663  0  0  0.387893  0  0.955604  0  0  0.276303  0.366785  0  0.986195  0
H  H3  1  0.87822555  0.02216881  0.21875867  1  0  0.410897  0  0.90196  0  0  0.375671  0  0.973385  0  0  0.388103  0  0.955324  0  0  0.276395  0.366988  0  0.98593  0
H  H4  1  0.37816382  0.19667535  0.21865774  1  0  0.410966  0  0.901813  0  0  0.375469  0  0.97366  0  0  0.387903  0  0.9556  0  0  0.276327  0.366794  0  0.986191  0
H  H5  1  0.12177654  0.97782813  0.78124115  1  0  0.410894  0  0.901952  0  0  0.375673  0  0.973373  0  0  0.388106  0  0.955312  0  0  0.276397  0.366989  0  0.985921  0
H  H6  1  0.51110889  0.90603432  0.84060838  1  0  0.420718  0  0.88516  0  0  0.386888  0  0.953611  0  0  0.398569  0  0.936761  0  0  0.28009  0.378565  0  0.965593  0
H  H7  1  0.98883584  0.06560178  0.15940304  1  0  0.420711  0  0.885295  0  0  0.387064  0  0.953513  0  0  0.398765  0  0.936625  0  0  0.280294  0.378743  0  0.965495  0
H  H8  1  0.48889242  0.09396649  0.15939317  1  0  0.420687  0  0.885202  0  0  0.386868  0  0.953634  0  0  0.398549  0  0.936784  0  0  0.280078  0.378545  0  0.965615  0
H  H9  1  0.01116458  0.93440001  0.84059888  1  0  0.420712  0  0.885283  0  0  0.387065  0  0.953502  0  0  0.398766  0  0.936615  0  0  0.280288  0.378747  0  0.965479  0
H  H10  1  0.81404879  0.48058455  0.59013917  1  0  0.096454  0  0.980329  0  0  0.105904  0  1.046649  0  0  0.108908  0  1.04508  0  0  0.098911  0.103803  0  1.047697  0
H  H11  1  0.68593656  0.89051927  0.40988989  1  0  0.095527  0  0.981207  0  0  0.105105  0  1.047555  0  0  0.108093  0  1.046017  0  0  0.098674  0.103011  0  1.048595  0
H  H12  1  0.18594966  0.51941425  0.40985799  1  0  0.096397  0  0.980334  0  0  0.105861  0  1.046653  0  0  0.108867  0  1.045079  0  0  0.098906  0.103746  0  1.047716  0
H  H13  1  0.31405919  0.10948052  0.59010919  1  0  0.09551  0  0.981146  0  0  0.10508  0  1.047529  0  0  0.108068  0  1.045993  0  0  0.098667  0.102989  0  1.048569  0
H  H14  1  0.75687913  0.26244578  0.55156550  1  0  0.095176  0  0.958509  0  0  0.109818  0  1.013537  0  0  0.111946  0  1.013501  0  0  0.098736  0.108005  0  1.014268  0
H  H15  1  0.74302134  0.71097808  0.44859832  1  0  0.095392  0  0.958467  0  0  0.110127  0  1.013454  0  0  0.112211  0  1.013484  0  0  0.098896  0.108244  0  1.014257  0
H  H16  1  0.24311752  0.73755399  0.44843281  1  0  0.095158  0  0.958515  0  0  0.109799  0  1.01354  0  0  0.111927  0  1.013505  0  0  0.09874  0.107986  0  1.014272  0
H  H17  1  0.25697445  0.28902269  0.55140204  1  0  0.095411  0  0.958415  0  0  0.110165  0  1.013374  0  0  0.112236  0  1.013421  0  0  0.0989  0.108292  0  1.014169  0
H  H18  1  0.10733870  0.23925861  0.72509534  1  0  0.098238  0  0.946873  0  0  0.111266  0  1.003818  0  0  0.113953  0  1.003419  0  0  0.098887  0.109451  0  1.003945  0
H  H19  1  0.39264187  0.51429539  0.27485795  1  0  0.098111  0  0.947826  0  0  0.111427  0  1.004494  0  0  0.114124  0  1.004051  0  0  0.0989  0.109587  0  1.004677  0
H  H20  1  0.89265895  0.76074405  0.27490188  1  0  0.098244  0  0.946847  0  0  0.111249  0  1.003833  0  0  0.113935  0  1.003436  0  0  0.098867  0.109444  0  1.003945  0
H  H21  1  0.60735555  0.48569956  0.72513985  1  0  0.098143  0  0.947823  0  0  0.111396  0  1.004547  0  0  0.114114  0  1.004082  0  0  0.098902  0.109572  0  1.004706  0
H  H22  1  0.16888294  0.45568163  0.75812591  1  0  0.086682  0  0.984941  0  0  0.098456  0  1.048342  0  0  0.10046  0  1.048833  0  0  0.092153  0.096757  0  1.048751  0
H  H23  1  0.33113140  0.69767943  0.24178341  1  0  0.086262  0  0.985209  0  0  0.097948  0  1.048784  0  0  0.099949  0  1.049286  0  0  0.092  0.096249  0  1.049185  0
H  H24  1  0.83111567  0.54432109  0.24187468  1  0  0.086653  0  0.984991  0  0  0.098433  0  1.048386  0  0  0.100437  0  1.048878  0  0  0.092141  0.096734  0  1.048795  0
H  H25  1  0.66886426  0.30231746  0.75821599  1  0  0.08633  0  0.985096  0  0  0.09801  0  1.048685  0  0  0.100011  0  1.049187  0  0  0.092008  0.09631  0  1.049086  0
H  H26  1  0.86780856  0.03501309  0.50990769  1  0  0.119884  0  0.95761  0  0  0.139691  0  1.020924  0  0  0.141799  0  1.019819  0  0  0.090639  0.138103  0  1.021755  0
H  H27  1  0.63212023  0.52539474  0.49021486  1  0  0.119689  0  0.958654  0  0  0.139593  0  1.021853  0  0  0.141633  0  1.02083  0  0  0.090444  0.138014  0  1.022676  0
H  H28  1  0.13219084  0.96498577  0.49009285  1  0  0.119874  0  0.957592  0  0  0.139683  0  1.020906  0  0  0.14179  0  1.019802  0  0  0.090639  0.138094  0  1.021738  0
H  H29  1  0.36787837  0.47460796  0.50978491  1  0  0.119664  0  0.958712  0  0  0.139589  0  1.021885  0  0  0.14163  0  1.020862  0  0  0.090429  0.138007  0  1.022712  0
H  H30  1  0.80646082  0.10015912  0.65702223  1  0  0.092682  0  0.987565  0  0  0.107014  0  1.064527  0  0  0.108332  0  1.064981  0  0  0.076915  0.106001  0  1.064313  0
H  H31  1  0.69349424  0.44322390  0.34310777  1  0  0.09248  0  0.987343  0  0  0.106914  0  1.064208  0  0  0.108244  0  1.064641  0  0  0.076731  0.105894  0  1.06401  0
H  H32  1  0.19353868  0.89984264  0.34297881  1  0  0.092679  0  0.987573  0  0  0.107009  0  1.064536  0  0  0.108326  0  1.06499  0  0  0.076919  0.105996  0  1.064321  0
H  H33  1  0.30650431  0.55677690  0.65689359  1  0  0.092526  0  0.98728  0  0  0.106964  0  1.06414  0  0  0.108292  0  1.064575  0  0  0.076754  0.105943  0  1.063942  0
H  H34  1  0.96300766  0.05815817  0.64593957  1  0  0.112216  0  0.945082  0  0  0.136037  0  0.999254  0  0  0.138023  0  0.998351  0  0  0.089889  0.134609  0  0.999806  0
H  H35  1  0.53694928  0.41239185  0.35420950  1  0  0.112419  0  0.944858  0  0  0.135988  0  0.99929  0  0  0.137974  0  0.998387  0  0  0.089873  0.134569  0  0.999833  0
H  H36  1  0.03699187  0.94184457  0.35406191  1  0  0.112219  0  0.945102  0  0  0.136033  0  0.999278  0  0  0.138018  0  0.998376  0  0  0.089885  0.134602  0  0.999833  0
H  H37  1  0.46305107  0.58760798  0.64579071  1  0  0.112431  0  0.944864  0  0  0.135991  0  0.999307  0  0  0.137985  0  0.998396  0  0  0.089869  0.134576  0  0.999843  0
H  H38  1  0.98277196  0.76206557  0.61211562  1  0  0.136611  0  0.910752  0  0  0.155606  0  0.958364  0  0  0.157511  0  0.958548  0  0  0.113665  0.15423  0  0.958452  0
H  H39  1  0.51719100  0.15010128  0.38794422  1  0  0.137526  0  0.910907  0  0  0.155964  0  0.959032  0  0  0.157833  0  0.959201  0  0  0.113822  0.154585  0  0.95912  0
H  H40  1  0.01723216  0.23793720  0.38788617  1  0  0.136626  0  0.910697  0  0  0.155616  0  0.95832  0  0  0.157526  0  0.958507  0  0  0.113687  0.154239  0  0.958409  0
H  H41  1  0.48281020  0.84989661  0.61205516  1  0  0.137501  0  0.910861  0  0  0.155959  0  0.958977  0  0  0.15783  0  0.959147  0  0  0.113802  0.154579  0  0.959064  0
H  H42  1  0.89552112  0.61268172  0.54205108  1  0  0.119854  0  0.963719  0  0  0.127307  0  1.034514  0  0  0.129385  0  1.034258  0  0  0.101189  0.125863  0  1.034779  0
H  H43  1  0.60444143  0.07074219  0.45796076  1  0  0.120017  0  0.962961  0  0  0.127839  0  1.03329  0  0  0.129917  0  1.032966  0  0  0.101443  0.126368  0  1.033592  0
H  H44  1  0.10448306  0.38732297  0.45795077  1  0  0.119832  0  0.963696  0  0  0.127292  0  1.034482  0  0  0.129375  0  1.034227  0  0  0.101217  0.125851  0  1.034744  0
H  H45  1  0.39555797  0.92925667  0.54203977  1  0  0.119987  0  0.962944  0  0  0.12782  0  1.033286  0  0  0.129901  0  1.032962  0  0  0.101446  0.12635  0  1.033588  0
H  H46  1  0.59069342  0.20505028  0.09353855  1  0  0.094193  0  0.968878  0  0  0.103409  0  1.030019  0  0  0.106375  0  1.027114  0  0  0.116661  0.101149  0  1.03225  0
H  H47  1  0.90924723  0.11144956  0.90647930  1  0  0.094358  0  0.96938  0  0  0.103592  0  1.030338  0  0  0.106516  0  1.027486  0  0  0.116793  0.101336  0  1.032559  0
H  H48  1  0.40930428  0.79495245  0.90646281  1  0  0.094151  0  0.968855  0  0  0.103394  0  1.029995  0  0  0.106361  0  1.027088  0  0  0.116645  0.101134  0  1.032224  0
H  H49  1  0.09075036  0.88854932  0.09352277  1  0  0.094372  0  0.969391  0  0  0.10361  0  1.030339  0  0  0.106534  0  1.027492  0  0  0.116824  0.101355  0  1.032559  0
H  H50  1  0.58564283  0.41616361  0.10000728  1  0  0.102592  0  0.975758  0  0  0.113102  0  1.036813  0  0  0.115564  0  1.037521  0  0  0.106352  0.111273  0  1.036589  0
H  H51  1  0.91423732  0.31612174  0.90009025  1  0  0.102073  0  0.975855  0  0  0.112741  0  1.036881  0  0  0.115252  0  1.037492  0  0  0.106012  0.110892  0  1.036713  0
H  H52  1  0.41436229  0.58384112  0.89999628  1  0  0.10261  0  0.975768  0  0  0.113124  0  1.036816  0  0  0.115584  0  1.037526  0  0  0.106371  0.111293  0  1.036594  0
H  H53  1  0.08576382  0.68387422  0.09990907  1  0  0.102038  0  0.975831  0  0  0.112697  0  1.036876  0  0  0.115209  0  1.037486  0  0  0.10599  0.110846  0  1.036708  0
H  H54  1  0.58295965  0.58266047  0.09635969  1  0  0.101694  0  0.982302  0  0  0.110408  0  1.047391  0  0  0.112751  0  1.048259  0  0  0.104301  0.108712  0  1.046969  0
H  H55  1  0.91688290  0.48618854  0.90374471  1  0  0.101313  0  0.982704  0  0  0.110162  0  1.047618  0  0  0.112475  0  1.048532  0  0  0.104422  0.10849  0  1.04719  0
H  H56  1  0.41704625  0.41734039  0.90364298  1  0  0.101628  0  0.982293  0  0  0.110353  0  1.047383  0  0  0.112699  0  1.048253  0  0  0.104292  0.108662  0  1.046962  0
H  H57  1  0.08312026  0.51381324  0.09625574  1  0  0.101314  0  0.982701  0  0  0.110158  0  1.047634  0  0  0.11247  0  1.048549  0  0  0.104444  0.108488  0  1.047204  0
H  H58  1  0.91134276  0.69927624  0.91184454  1  0  0.072962  0  0.974948  0  0  0.075211  0  1.051088  0  0  0.077538  0  1.049647  0  0  0.109451  0.073355  0  1.052406  0
H  H59  1  0.58860159  0.78767330  0.08828792  1  0  0.073166  0  0.974848  0  0  0.075328  0  1.050889  0  0  0.07771  0  1.049491  0  0  0.109476  0.073438  0  1.052191  0
H  H60  1  0.08865852  0.30072454  0.08815452  1  0  0.072934  0  0.974991  0  0  0.075212  0  1.051098  0  0  0.077539  0  1.049658  0  0  0.109451  0.07336  0  1.052418  0
H  H61  1  0.41140064  0.21232753  0.91171368  1  0  0.073097  0  0.974883  0  0  0.075281  0  1.050921  0  0  0.07765  0  1.049533  0  0  0.109461  0.073392  0  1.052224  0
C  C62  1  0.99682844  0.48442370  0.67641835  1  0  0.019051  0  3.825865  0  0  0.040673  0  4.080254  0  0  0.041806  0  4.103083  0  0  -0.019822  0.039742  0  4.06455  0
C  C63  1  0.50311556  0.80812686  0.32352679  1  0  0.01858  0  3.825476  0  0  0.039711  0  4.080556  0  0  0.040813  0  4.10342  0  0  -0.019543  0.038791  0  4.064835  0
C  C64  1  0.00316823  0.51557702  0.32357875  1  0  0.019019  0  3.825907  0  0  0.04069  0  4.080229  0  0  0.041832  0  4.103045  0  0  -0.019825  0.039759  0  4.064522  0
C  C65  1  0.49687999  0.19186803  0.67646758  1  0  0.018607  0  3.825523  0  0  0.039767  0  4.080556  0  0  0.040861  0  4.103431  0  0  -0.019511  0.038845  0  4.064839  0
C  C66  1  0.87978824  0.42873151  0.61940554  1  0  -0.129413  0  3.783331  0  0  -0.151496  0  4.03693  0  0  -0.154231  0  4.058559  0  0  -0.103428  -0.149123  0  4.021791  0
C  C67  1  0.62015644  0.80944414  0.38063906  1  0  -0.128329  0  3.78245  0  0  -0.150419  0  4.036123  0  0  -0.153123  0  4.057731  0  0  -0.103244  -0.148051  0  4.020948  0
C  C68  1  0.12020935  0.57126922  0.38059162  1  0  -0.129296  0  3.783199  0  0  -0.1514  0  4.036752  0  0  -0.154137  0  4.058379  0  0  -0.103369  -0.149015  0  4.021623  0
C  C69  1  0.37984005  0.19055172  0.61935499  1  0  -0.128207  0  3.782366  0  0  -0.150314  0  4.036062  0  0  -0.153015  0  4.057665  0  0  -0.103223  -0.147948  0  4.020895  0
C  C70  1  0.84710417  0.30492736  0.59873392  1  0  -0.11295  0  3.728585  0  0  -0.130195  0  3.972769  0  0  -0.132059  0  3.993268  0  0  -0.094262  -0.12919  0  3.959706  0
C  C71  1  0.65283284  0.70631770  0.40137113  1  0  -0.11258  0  3.729602  0  0  -0.130112  0  3.973426  0  0  -0.131919  0  3.993896  0  0  -0.094406  -0.129067  0  3.960404  0
C  C72  1  0.15289436  0.69507433  0.40126292  1  0  -0.112949  0  3.728655  0  0  -0.130191  0  3.972874  0  0  -0.132057  0  3.993376  0  0  -0.094314  -0.129186  0  3.959807  0
C  C73  1  0.34716554  0.29367916  0.59862515  1  0  -0.112671  0  3.729587  0  0  -0.130198  0  3.973421  0  0  -0.131996  0  3.993893  0  0  -0.094404  -0.129159  0  3.960399  0
C  C74  1  0.92663663  0.23356667  0.63597267  1  0  0.129611  0  3.764136  0  0  0.154428  0  4.001449  0  0  0.155454  0  4.025498  0  0  -0.018209  0.153504  0  3.985541  0
C  C75  1  0.57330234  0.59773857  0.36411017  1  0  0.127706  0  3.768063  0  0  0.152973  0  4.004751  0  0  0.153995  0  4.028788  0  0  -0.018169  0.152057  0  3.988813  0
C  C76  1  0.07336192  0.76643505  0.36402582  1  0  0.12952  0  3.764099  0  0  0.154307  0  4.001466  0  0  0.155332  0  4.025514  0  0  -0.018258  0.153381  0  3.985556  0
C  C77  1  0.42669696  0.40225830  0.63588617  1  0  0.127813  0  3.767922  0  0  0.153053  0  4.004636  0  0  0.154077  0  4.028675  0  0  -0.018156  0.152137  0  3.988704  0
C  C78  1  0.04220328  0.29190959  0.69565743  1  0  -0.139288  0  3.762041  0  0  -0.15525  0  4.006412  0  0  -0.157785  0  4.026748  0  0  -0.100488  -0.15353  0  3.992662  0
C  C79  1  0.45777899  0.59637479  0.30436821  1  0  -0.139131  0  3.763996  0  0  -0.155566  0  4.008345  0  0  -0.158082  0  4.028697  0  0  -0.100802  -0.153848  0  3.994586  0
C  C80  1  0.95779429  0.70809018  0.30434012  1  0  -0.13924  0  3.761928  0  0  -0.155174  0  4.006303  0  0  -0.157709  0  4.02664  0  0  -0.100457  -0.15346  0  3.992541  0
C  C81  1  0.54221936  0.40362110  0.69562762  1  0  -0.13921  0  3.764004  0  0  -0.15558  0  4.008361  0  0  -0.158117  0  4.028708  0  0  -0.100834  -0.153873  0  3.994592  0
C  C82  1  0.07713473  0.41471621  0.71514556  1  0  -0.138098  0  3.803104  0  0  -0.158133  0  4.056645  0  0  -0.160284  0  4.077152  0  0  -0.110552  -0.156547  0  4.043249  0
C  C83  1  0.42286264  0.69968042  0.28483198  1  0  -0.136917  0  3.802741  0  0  -0.156704  0  4.056415  0  0  -0.158858  0  4.076955  0  0  -0.110481  -0.15513  0  4.043035  0
C  C84  1  0.92286199  0.58528550  0.28485282  1  0  -0.138084  0  3.803232  0  0  -0.158135  0  4.056742  0  0  -0.160291  0  4.077251  0  0  -0.110542  -0.156545  0  4.043336  0
C  C85  1  0.57713387  0.30031546  0.71516372  1  0  -0.136952  0  3.802727  0  0  -0.156742  0  4.056389  0  0  -0.158895  0  4.076938  0  0  -0.110458  -0.15517  0  4.043017  0
C  C86  1  0.88965349  0.09973393  0.61140995  1  0  -0.343002  0  3.723421  0  0  -0.420584  0  3.956957  0  0  -0.423416  0  3.96581  0  0  -0.246354  -0.41831  0  3.950914  0
C  C87  1  0.61029710  0.48848600  0.38870854  1  0  -0.341851  0  3.724038  0  0  -0.419615  0  3.957494  0  0  -0.422393  0  3.966425  0  0  -0.245856  -0.41735  0  3.95141  0
C  C88  1  0.11034691  0.90026783  0.38859032  1  0  -0.342954  0  3.723384  0  0  -0.420521  0  3.956918  0  0  -0.42335  0  3.965772  0  0  -0.246335  -0.418255  0  3.950897  0
C  C89  1  0.38970233  0.51151382  0.61129161  1  0  -0.34197  0  3.724015  0  0  -0.419742  0  3.957474  0  0  -0.422527  0  3.966404  0  0  -0.24589  -0.417478  0  3.951392  0
C  C90  1  0.93494636  0.69255826  0.63201034  1  0  -0.310121  0  3.63642  0  0  -0.341525  0  3.889013  0  0  -0.346423  0  3.894914  0  0  -0.151787  -0.338443  0  3.8852  0
C  C91  1  0.56505255  0.06066179  0.36798339  1  0  -0.311466  0  3.63702  0  0  -0.342752  0  3.88947  0  0  -0.347436  0  3.89494  0  0  -0.152477  -0.339674  0  3.885755  0
C  C92  1  0.06505678  0.30744348  0.36798846  1  0  -0.310217  0  3.636379  0  0  -0.341591  0  3.88891  0  0  -0.346519  0  3.894846  0  0  -0.151878  -0.338508  0  3.885093  0
C  C93  1  0.43494774  0.93933611  0.63201676  1  0  -0.311427  0  3.636939  0  0  -0.342729  0  3.889471  0  0  -0.347424  0  3.894958  0  0  -0.152442  -0.33965  0  3.885753  0
C  C94  1  0.83560885  0.76142065  0.72081379  1  0  0.70214  0  3.864951  0  0  0.652146  0  4.167337  0  0  0.685661  0  4.160415  0  0  0.205329  0.629465  0  4.171224  0
C  C95  1  0.66443245  0.04075218  0.27926828  1  0  0.701777  0  3.865496  0  0  0.652124  0  4.167586  0  0  0.685641  0  4.160595  0  0  0.205223  0.629417  0  4.171507  0
C  C96  1  0.16439432  0.23858114  0.27918749  1  0  0.702184  0  3.865007  0  0  0.652181  0  4.167398  0  0  0.685704  0  4.160473  0  0  0.205346  0.629501  0  4.171287  0
C  C97  1  0.33556775  0.95924283  0.72073219  1  0  0.702023  0  3.865371  0  0  0.652215  0  4.167682  0  0  0.685736  0  4.160686  0  0  0.205232  0.629508  0  4.171601  0
C  C98  1  0.66185040  0.23321328  0.05227168  1  0  0.130688  0  3.710336  0  0  0.096845  0  3.968486  0  0  0.104494  0  3.985705  0  0  0.046832  0.092219  0  3.956641  0
C  C99  1  0.83803204  0.18088978  0.94775223  1  0  0.130449  0  3.710904  0  0  0.096603  0  3.969236  0  0  0.104279  0  3.986448  0  0  0.046984  0.091983  0  3.957375  0
C  C100  1  0.33814543  0.76678848  0.94772995  1  0  0.130743  0  3.710204  0  0  0.096849  0  3.968388  0  0  0.104499  0  3.985604  0  0  0.046869  0.092223  0  3.956538  0
C  C101  1  0.16196555  0.81910911  0.05225067  1  0  0.130371  0  3.710884  0  0  0.096506  0  3.96925  0  0  0.10418  0  3.986465  0  0  0.046933  0.091888  0  3.957379  0
C  C102  1  0.65905320  0.35221878  0.05445056  1  0  -0.151674  0  3.688059  0  0  -0.169612  0  3.937018  0  0  -0.177422  0  3.957999  0  0  -0.080266  -0.164672  0  3.9232  0
C  C103  1  0.84077125  0.29773771  0.94557033  1  0  -0.150323  0  3.687719  0  0  -0.168549  0  3.936636  0  0  -0.176369  0  3.95761  0  0  -0.079614  -0.163616  0  3.922808  0
C  C104  1  0.34094900  0.64778109  0.94555142  1  0  -0.151731  0  3.688107  0  0  -0.169648  0  3.936972  0  0  -0.177457  0  3.957956  0  0  -0.080262  -0.164708  0  3.923154  0
C  C105  1  0.15923276  0.70226119  0.05443133  1  0  -0.150336  0  3.687847  0  0  -0.168562  0  3.936748  0  0  -0.176382  0  3.957725  0  0  -0.079643  -0.163627  0  3.922917  0
C  C106  1  0.74991406  0.38748809  0.00000627  1  0  0.087602  0  3.765895  0  0  0.097882  0  3.998469  0  0  0.102553  0  4.018388  0  0  0.010907  0.094709  0  3.98496  0
C  C107  1  0.25008913  0.61251465  0.99999463  1  0  0.087726  0  3.766083  0  0  0.098058  0  3.998523  0  0  0.10273  0  4.018443  0  0  0.010962  0.094882  0  3.985015  0
C  C108  1  0.74989625  0.51308975  0.00001722  1  0  0.088232  0  3.757189  0  0  0.100681  0  3.985691  0  0  0.103975  0  4.006674  0  0  0.013017  0.098783  0  3.970859  0
C  C109  1  0.25010783  0.48691204  0.99998330  1  0  0.088119  0  3.757222  0  0  0.100593  0  3.985656  0  0  0.103887  0  4.00664  0  0  0.012921  0.098697  0  3.970824  0
C  C110  1  0.65746154  0.60160628  0.05228516  1  0  -0.151644  0  3.6888  0  0  -0.169726  0  3.934979  0  0  -0.177083  0  3.95708  0  0  -0.079723  -0.164593  0  3.919785  0
C  C111  1  0.84239777  0.54927632  0.94783269  1  0  -0.151459  0  3.688416  0  0  -0.169552  0  3.934623  0  0  -0.1769  0  3.956698  0  0  -0.080039  -0.164442  0  3.919461  0
C  C112  1  0.34253893  0.39839650  0.94771887  1  0  -0.151573  0  3.688762  0  0  -0.169686  0  3.934955  0  0  -0.177048  0  3.957059  0  0  -0.079673  -0.16456  0  3.919768  0
C  C113  1  0.15760543  0.45072644  0.05216903  1  0  -0.151462  0  3.688304  0  0  -0.16957  0  3.934487  0  0  -0.176916  0  3.95656  0  0  -0.080079  -0.164459  0  3.919325  0
C  C114  1  0.66031231  0.71819544  0.04948722  1  0  0.133166  0  3.7046  0  0  0.104624  0  3.95441  0  0  0.111192  0  3.973081  0  0  0.048722  0.100207  0  3.941937  0
C  C115  1  0.83961031  0.66868737  0.95066190  1  0  0.133437  0  3.704436  0  0  0.104623  0  3.954423  0  0  0.111295  0  3.973096  0  0  0.048593  0.100153  0  3.941921  0
C  C116  1  0.33969080  0.28180441  0.95051400  1  0  0.133271  0  3.704567  0  0  0.104695  0  3.954399  0  0  0.111275  0  3.973075  0  0  0.048738  0.100278  0  3.94193  0
C  C117  1  0.16039374  0.33131346  0.04933900  1  0  0.133435  0  3.704485  0  0  0.104616  0  3.95446  0  0  0.111286  0  3.973136  0  0  0.048618  0.100143  0  3.941963  0
S  S118  1  0.05642197  0.63434753  0.69926567  1  0  0.019271  0  2.418594  0  0  0.02097  0  2.750671  0  0  0.016801  0  2.753572  0  0  0.015762  0.02448  0  2.748661  0
S  S119  1  0.44362563  0.93519555  0.30064397  1  0  0.019837  0  2.418584  0  0  0.021806  0  2.750603  0  0  0.017576  0  2.753447  0  0  0.016122  0.025321  0  2.74857  0
S  S120  1  0.94357937  0.36565426  0.30073632  1  0  0.019352  0  2.418596  0  0  0.021018  0  2.750654  0  0  0.016858  0  2.753565  0  0  0.015798  0.024529  0  2.748644  0
S  S121  1  0.55637098  0.06480232  0.69935593  1  0  0.019765  0  2.41857  0  0  0.021728  0  2.750611  0  0  0.017505  0  2.753463  0  0  0.016085  0.025245  0  2.748577  0
N  N122  1  0.74993831  0.14850172  0.99997089  1  0  -0.352018  0  3.300066  0  0  -0.278088  0  3.578615  0  0  -0.298232  0  3.596468  0  0  -0.331977  -0.264446  0  3.565987  0
N  N123  1  0.25005933  0.85149907  0.00003042  1  0  -0.351965  0  3.299896  0  0  -0.278044  0  3.578481  0  0  -0.298188  0  3.596335  0  0  -0.331991  -0.264403  0  3.565851  0
N  N124  1  0.74998212  0.75193888  0.00009205  1  0  -0.31388  0  3.223003  0  0  -0.23683  0  3.478285  0  0  -0.255526  0  3.4967  0  0  -0.324381  -0.224147  0  3.465751  0
N  N125  1  0.25002017  0.24806387  0.99990961  1  0  -0.313821  0  3.223067  0  0  -0.236783  0  3.478391  0  0  -0.255479  0  3.496806  0  0  -0.324343  -0.224102  0  3.465862  0
O  O126  1  0.87312513  0.85927240  0.82763883  1  0  -0.687057  0  2.042182  0  0  -0.60847  0  2.284325  0  0  -0.638676  0  2.273043  0  0  -0.329939  -0.587218  0  2.291259  0
O  O127  1  0.62693920  0.03183157  0.17245300  1  0  -0.686969  0  2.042209  0  0  -0.608456  0  2.28393  0  0  -0.638722  0  2.272722  0  0  -0.329734  -0.587179  0  2.290873  0
O  O128  1  0.12687901  0.14073039  0.17236461  1  0  -0.686998  0  2.042185  0  0  -0.608418  0  2.284332  0  0  -0.638624  0  2.27305  0  0  -0.329909  -0.58716  0  2.291265  0
O  O129  1  0.37306117  0.96816828  0.82754887  1  0  -0.687127  0  2.042221  0  0  -0.608537  0  2.284013  0  0  -0.638814  0  2.272823  0  0  -0.32973  -0.587259  0  2.290956  0
O  O130  1  0.57660341  0.85615989  0.85803682  1  0  -0.854771  0  1.882132  0  0  -0.789588  0  2.080379  0  0  -0.812885  0  2.044375  0  0  -0.595762  -0.772924  0  2.105234  0
O  O131  1  0.92340094  0.99831786  0.14205141  1  0  -0.854589  0  1.882471  0  0  -0.789888  0  2.080402  0  0  -0.813152  0  2.044287  0  0  -0.595902  -0.773219  0  2.105267  0
O  O132  1  0.42339786  0.14383995  0.14196428  1  0  -0.854762  0  1.882155  0  0  -0.789589  0  2.080406  0  0  -0.81289  0  2.044399  0  0  -0.595778  -0.772924  0  2.105259  0
O  O133  1  0.07660039  0.00168391  0.85794975  1  0  -0.854589  0  1.88246  0  0  -0.789911  0  2.080392  0  0  -0.813171  0  2.044267  0  0  -0.595894  -0.77324  0  2.105255  0
O  O134  1  0.72597835  0.71890131  0.68427949  1  0  -0.611767  0  1.934078  0  0  -0.55779  0  2.153214  0  0  -0.582657  0  2.144352  0  0  -0.311114  -0.540432  0  2.158622  0
O  O135  1  0.77404487  0.03469543  0.31580954  1  0  -0.611157  0  1.93393  0  0  -0.557476  0  2.152947  0  0  -0.582354  0  2.144084  0  0  -0.311194  -0.540115  0  2.158389  0
O  O136  1  0.27402478  0.28109950  0.31572052  1  0  -0.611779  0  1.934096  0  0  -0.557827  0  2.153271  0  0  -0.582696  0  2.144407  0  0  -0.31113  -0.540466  0  2.158678  0
O  O137  1  0.22595690  0.96529276  0.68418545  1  0  -0.611218  0  1.93391  0  0  -0.557461  0  2.152962  0  0  -0.582338  0  2.144094  0  0  -0.311227  -0.540098  0  2.158403  0
