# generated using pymatgen
data_CoH9C8N5O2
_symmetry_space_group_name_H-M   'P 1'
_cell_length_a   15.51711965
_cell_length_b   15.51727441
_cell_length_c   15.51717088
_cell_angle_alpha   100.48852237
_cell_angle_beta   114.14212666
_cell_angle_gamma   114.14043661
_symmetry_Int_Tables_number   1
_chemical_formula_structural   CoH9C8N5O2
_chemical_formula_sum   'Co8 H72 C64 N40 O16'
_cell_volume   2824.33863881
_cell_formula_units_Z   8
loop_
 _symmetry_equiv_pos_site_id
 _symmetry_equiv_pos_as_xyz
  1  'x, y, z'
loop_
 _atom_site_type_symbol
 _atom_site_label
 _atom_site_symmetry_multiplicity
 _atom_site_fract_x
 _atom_site_fract_y
 _atom_site_fract_z
 _atom_site_occupancy
 _atom_site_pbe_bader_charge
 _atom_site_pbe_bader_spin_density
 _atom_site_pbe_cm5_charge
 _atom_site_pbe_ddec_charge
 _atom_site_pbe_ddec_spin_density
 _atom_site_pbe_ddec_sum_bond_order
 _atom_site_pbe_magmom
Co  Co0  1  0.49056837  0.91695761  0.47572581  1  1.13706  2.576434  0.629806  0.657299  2.789358  2.783129  2.566
Co  Co1  1  0.00942516  0.98515036  0.92635729  1  1.136474  2.576431  0.62983  0.657362  2.789305  2.783106  2.566
Co  Co2  1  0.44128989  0.42646313  0.41707186  1  1.138382  2.57644  0.630058  0.657739  2.78932  2.784056  2.567
Co  Co3  1  0.05872150  0.97576539  0.48516752  1  1.137756  2.576571  0.630179  0.657854  2.789404  2.784189  2.567
Co  Co4  1  0.50939068  0.08295987  0.52424785  1  1.13717  2.576541  0.629954  0.657528  2.789329  2.783999  2.566
Co  Co5  1  0.99060868  0.01485461  0.07353608  1  1.135945  2.576619  0.629931  0.657592  2.789311  2.78399  2.567
Co  Co6  1  0.55880107  0.57363609  0.58312452  1  1.139479  2.576368  0.630212  0.657948  2.789266  2.78413  2.566
Co  Co7  1  0.94121995  0.02431245  0.51483702  1  1.13776  2.576359  0.630124  0.657967  2.789247  2.78385  2.566
H  H8  1  0.59564215  0.81228388  0.60620952  1  0.156089  0.000493  0.13012  0.093029  -7.8e-05  1.010999  0.0
H  H9  1  0.51496338  0.00322195  0.80157629  1  0.04598  -0.000703  0.108428  0.124614  -0.000751  0.949297  -0.001
H  H10  1  0.65379084  0.10379401  0.85482615  1  0.033239  0.001019  0.094254  0.096985  0.000426  0.995466  0.0
H  H11  1  0.65230544  0.95948331  0.90809550  1  0.047167  0.000651  0.082971  0.113382  0.000222  1.018406  0.0
H  H12  1  0.70347139  0.96698368  0.82433658  1  0.020302  6.2e-05  0.086169  0.120496  -6.7e-05  1.006545  0.0
H  H13  1  0.56382030  0.86852979  0.77517229  1  0.059878  0.000201  0.088611  0.122968  7.6e-05  1.001667  0.0
H  H14  1  0.28826779  0.39877668  0.18063848  1  0.112362  0.000865  0.121661  0.06886  0.00019  0.998623  0.0
H  H15  1  0.27894475  0.66405240  0.12367129  1  0.443267  0.000189  0.318759  0.312963  0.000113  0.924922  0.0
H  H16  1  0.37008814  0.77924816  0.24154241  1  0.531217  0.000299  0.297918  0.317122  0.000297  1.011123  0.0
H  H17  1  0.90439387  0.01056045  0.71665217  1  0.14491  0.000487  0.130088  0.092903  -7.8e-05  1.011127  0.0
H  H18  1  0.98499593  0.28658407  0.98824139  1  0.064326  -0.000703  0.108273  0.124435  -0.000752  0.949041  -0.001
H  H19  1  0.84615585  0.20100477  0.94996611  1  0.033408  0.001017  0.094165  0.096756  0.000426  0.99564  0.0
H  H20  1  0.84767227  0.25577033  0.80716455  1  0.030009  0.000653  0.082954  0.113447  0.000221  1.018377  0.0
H  H21  1  0.79650928  0.12084312  0.76348503  1  0.036183  5.9e-05  0.086144  0.120484  -6.6e-05  1.006548  0.0
H  H22  1  0.93616497  0.21134199  0.80470587  1  0.045594  0.000202  0.0886  0.122963  7.6e-05  1.001717  0.0
H  H23  1  0.21173451  0.89234208  0.61050247  1  0.099869  0.000871  0.121683  0.06897  0.000189  0.998782  0.0
H  H24  1  0.22105770  0.84470010  0.88511380  1  0.455972  0.000188  0.318753  0.31289  0.000113  0.925091  0.0
H  H25  1  0.12991276  0.87145278  0.90915211  1  0.51748  0.000303  0.297824  0.316946  0.000297  1.011084  0.0
H  H26  1  0.20607881  0.21661498  0.31227453  1  0.151486  0.000487  0.130134  0.092886  -7.9e-05  1.011004  0.0
H  H27  1  0.20167244  0.48827758  0.50330675  1  0.062198  -0.000709  0.108374  0.124534  -0.000755  0.949108  -0.001
H  H28  1  0.24899483  0.45000568  0.60381699  1  0.00891  0.001045  0.094245  0.096837  0.000427  0.995814  0.0
H  H29  1  0.05139313  0.30721710  0.45951207  1  0.03648  0.000651  0.082962  0.113438  0.000221  1.018476  0.0
H  H30  1  0.14259375  0.26350871  0.46700750  1  0.025788  6.1e-05  0.086275  0.120591  -6.7e-05  1.00673  0.0
H  H31  1  0.09332685  0.30474845  0.36856206  1  0.046401  0.000203  0.088615  0.12299  7.6e-05  1.001647  0.0
H  H32  1  0.21818079  0.11047952  0.89880023  1  0.112484  0.000862  0.121644  0.068852  0.000189  0.998668  0.0
H  H33  1  0.54042801  0.38510470  0.16407429  1  0.440271  0.000191  0.318788  0.313059  0.000112  0.92486  0.0
H  H34  1  0.53767277  0.40915287  0.27926727  1  0.52138  0.000293  0.297946  0.317522  0.000297  1.01086  0.0
H  H35  1  0.29390480  0.10619102  0.51053079  1  0.153064  0.000487  0.130138  0.092924  -7.8e-05  1.010932  0.0
H  H36  1  0.29833238  0.30160930  0.78659090  1  0.042421  -0.000709  0.108288  0.124469  -0.000756  0.949048  -0.001
H  H37  1  0.25101433  0.35480322  0.70100203  1  0.022944  0.001029  0.094257  0.096861  0.000427  0.995666  0.0
H  H38  1  0.44860630  0.40812090  0.75582639  1  0.039175  0.00065  0.082966  0.113403  0.000221  1.018432  0.0
H  H39  1  0.35743153  0.32441749  0.62091493  1  0.033526  6e-05  0.086244  0.120475  -6.7e-05  1.006821  0.0
H  H40  1  0.40670578  0.27524877  0.71142608  1  0.052227  0.000199  0.088558  0.122963  7.6e-05  1.00168  0.0
H  H41  1  0.28180025  0.68061689  0.39229118  1  0.098867  0.000868  0.12169  0.068878  0.000189  0.998672  0.0
H  H42  1  0.95957646  0.62363711  0.34467515  1  0.484628  0.00018  0.318808  0.313062  0.000113  0.925076  0.0
H  H43  1  0.96231485  0.74159339  0.37147500  1  0.519744  0.000299  0.297933  0.317473  0.000297  1.010912  0.0
H  H44  1  0.40437822  0.18769626  0.39382521  1  0.156515  0.000491  0.130251  0.093062  -7.9e-05  1.011188  0.0
H  H45  1  0.48496775  0.99670731  0.19838173  1  0.045772  -0.000707  0.108302  0.12443  -0.000754  0.948956  -0.001
H  H46  1  0.34614991  0.89617826  0.14514504  1  0.032077  0.001021  0.094167  0.09676  0.000427  0.995688  0.0
H  H47  1  0.34768401  0.04047311  0.09187842  1  0.046862  0.00065  0.082976  0.113507  0.000221  1.018448  0.0
H  H48  1  0.29651011  0.03301998  0.17564478  1  0.020145  6.1e-05  0.086244  0.120682  -6.7e-05  1.006472  0.0
H  H49  1  0.43617917  0.13144133  0.22479877  1  0.060329  0.0002  0.088587  0.122974  7.6e-05  1.001649  0.0
H  H50  1  0.71164338  0.60118757  0.81940166  1  0.110941  0.000866  0.12167  0.068942  0.000189  0.998746  0.0
H  H51  1  0.72099388  0.33590902  0.87635631  1  0.443268  0.000189  0.318827  0.313139  0.000112  0.924836  0.0
H  H52  1  0.62987788  0.22072527  0.75842898  1  0.530718  0.000299  0.297907  0.317224  0.000296  1.010863  0.0
H  H53  1  0.09564763  0.98943868  0.28332638  1  0.144608  0.000485  0.130199  0.092984  -7.9e-05  1.011188  0.0
H  H54  1  0.01502359  0.71340788  0.01172688  1  0.064029  -0.000705  0.108341  0.124465  -0.000754  0.949145  -0.001
H  H55  1  0.15383710  0.79899788  0.05001908  1  0.033407  0.001019  0.094209  0.096788  0.000427  0.995776  0.0
H  H56  1  0.15230642  0.74419641  0.19278692  1  0.029783  0.000653  0.082981  0.113501  0.000221  1.018405  0.0
H  H57  1  0.20348092  0.87913345  0.23650259  1  0.036303  5.9e-05  0.086207  0.120596  -6.7e-05  1.006379  0.0
H  H58  1  0.06380646  0.78861901  0.19525254  1  0.046409  0.000202  0.088575  0.122937  7.6e-05  1.001573  0.0
H  H59  1  0.78835294  0.10771995  0.38952578  1  0.099874  0.00087  0.121686  0.068982  0.000189  0.998694  0.0
H  H60  1  0.77901593  0.15535121  0.11491779  1  0.45569  0.000187  0.318903  0.313072  0.000112  0.924863  0.0
H  H61  1  0.87011904  0.12855216  0.09083451  1  0.51677  0.000305  0.297974  0.317157  0.000297  1.010831  0.0
H  H62  1  0.79391704  0.78336724  0.68771451  1  0.151321  0.000491  0.130181  0.093035  -7.7e-05  1.010994  0.0
H  H63  1  0.79837270  0.51177238  0.49674649  1  0.062297  -0.000705  0.10833  0.124503  -0.000752  0.949039  -0.001
H  H64  1  0.75102677  0.55003943  0.39623027  1  0.009251  0.001044  0.094246  0.096829  0.000426  0.995545  0.0
H  H65  1  0.94858741  0.69286387  0.54055604  1  0.03697  0.00065  0.082975  0.1135  0.000221  1.018497  0.0
H  H66  1  0.85734972  0.73651500  0.53304779  1  0.026726  6.1e-05  0.086135  0.120416  -6.7e-05  1.006673  0.0
H  H67  1  0.90664593  0.69530769  0.63149055  1  0.045238  0.000203  0.088614  0.123002  7.6e-05  1.001658  0.0
H  H68  1  0.78183764  0.88949729  0.10118734  1  0.112161  0.000863  0.121752  0.068994  0.000189  0.998557  0.0
H  H69  1  0.45956694  0.61489525  0.83592152  1  0.440363  0.000191  0.318783  0.313153  0.000112  0.924772  0.0
H  H70  1  0.46231722  0.59085070  0.72072462  1  0.52123  0.000292  0.297891  0.317411  0.000297  1.0113  0.0
H  H71  1  0.70608744  0.89381950  0.48944525  1  0.153061  0.000489  0.130095  0.092862  -7.7e-05  1.011077  0.0
H  H72  1  0.70163512  0.69835088  0.21337348  1  0.042342  -0.000704  0.108337  0.124493  -0.000752  0.949237  -0.001
H  H73  1  0.74898081  0.64518683  0.29899075  1  0.022945  0.001027  0.094254  0.096889  0.000426  0.995576  0.0
H  H74  1  0.55140981  0.59196836  0.24425773  1  0.039635  0.000649  0.083014  0.113497  0.000221  1.018526  0.0
H  H75  1  0.64267043  0.67569003  0.37915084  1  0.033619  6e-05  0.086155  0.120412  -6.7e-05  1.006669  0.0
H  H76  1  0.59338750  0.72485157  0.28865481  1  0.050869  0.000199  0.088571  0.122876  7.6e-05  1.001801  0.0
H  H77  1  0.71816340  0.31935350  0.60764775  1  0.097651  0.000869  0.121755  0.068918  0.000189  0.998684  0.0
H  H78  1  0.04044190  0.37635436  0.65532671  1  0.484305  0.000181  0.318809  0.313114  0.000112  0.924922  0.0
H  H79  1  0.03766736  0.25840238  0.62852323  1  0.519973  0.000297  0.297886  0.317366  0.000296  1.011005  0.0
C  C80  1  0.54279426  0.75449444  0.52627327  1  0.963317  -0.002336  0.145651  0.198834  -0.002999  3.920464  -0.001
C  C81  1  0.43011180  0.68056208  0.35896461  1  0.417035  0.005628  0.07346  -0.049099  0.003288  4.013797  0.005
C  C82  1  0.35667403  0.64273696  0.25033932  1  1.038804  0.001426  0.235976  0.407957  0.000717  4.149425  0.001
C  C83  1  0.56068231  0.01501282  0.69135325  1  1.539892  -0.009117  0.221179  0.621879  -0.014094  4.095662  -0.009
C  C84  1  0.59049430  0.02181806  0.79936221  1  -0.010696  0.009607  -0.160089  -0.238552  0.005313  3.959762  0.007
C  C85  1  0.62970258  0.95018905  0.82859906  1  -0.075093  0.001782  -0.248514  -0.334318  0.001027  3.961172  0.001
C  C86  1  0.44815662  0.60886748  0.39459759  1  0.984281  0.001547  0.199922  0.277146  -0.001884  4.148454  0.001
C  C87  1  0.33033204  0.47990886  0.23274503  1  1.070722  0.004721  0.161773  0.247557  0.003268  4.043819  0.003
C  C88  1  0.95723197  0.98347444  0.71171005  1  0.961022  -0.002278  0.145668  0.198901  -0.002986  3.92062  -0.001
C  C89  1  0.06990110  0.92884381  0.75045407  1  0.399156  0.005656  0.073535  -0.049181  0.003289  4.01338  0.005
C  C90  1  0.14333681  0.89365419  0.78605572  1  1.04931  0.001424  0.235895  0.407943  0.000717  4.149036  0.001
C  C91  1  0.93928521  0.13065022  0.95431289  1  1.536166  -0.009086  0.221211  0.621943  -0.014098  4.095479  -0.009
C  C92  1  0.90946401  0.20883550  0.93130051  1  -0.033719  0.009603  -0.159806  -0.238053  0.005312  3.959498  0.007
C  C93  1  0.87027065  0.19887303  0.82046415  1  -0.050468  0.001772  -0.248498  -0.334452  0.001028  3.961118  0.001
C  C94  1  0.05186001  0.94643506  0.66071103  1  0.988408  0.001613  0.199778  0.276809  -0.001888  4.148178  0.001
C  C95  1  0.16967759  0.90239923  0.64956947  1  1.078018  0.004738  0.161651  0.247159  0.00327  4.044318  0.003
C  C96  1  0.22826032  0.21173450  0.25450131  1  0.95787  -0.002252  0.145796  0.199142  -0.003029  3.920058  -0.001
C  C97  1  0.32168136  0.25045103  0.18061607  1  0.414475  0.005624  0.073131  -0.049461  0.00329  4.013624  0.005
C  C98  1  0.39246462  0.28604759  0.14277296  1  1.054618  0.001425  0.23604  0.408344  0.000717  4.149509  0.001
C  C99  1  0.32370439  0.45438225  0.51509096  1  1.547332  -0.009196  0.221092  0.621643  -0.014103  4.095297  -0.009
C  C100  1  0.22247106  0.43132354  0.52184495  1  -0.007421  0.009589  -0.160088  -0.238157  0.00531  3.960194  0.007
C  C101  1  0.12158604  0.32050781  0.45022010  1  -0.052738  0.001783  -0.248583  -0.334548  0.001027  3.961767  0.001
C  C102  1  0.21433738  0.16070565  0.10889136  1  0.989548  0.001637  0.200114  0.277232  -0.001917  4.148215  0.001
C  C103  1  0.24723419  0.14955460  0.97993939  1  1.071395  0.004722  0.1619  0.247728  0.003262  4.044779  0.003
C  C104  1  0.27171849  0.02623833  0.48346296  1  0.962205  -0.002352  0.145687  0.198904  -0.003026  3.920455  -0.001
C  C105  1  0.17830248  0.85893190  0.42876950  1  0.395282  0.005655  0.073113  -0.049201  0.00329  4.013401  0.005
C  C106  1  0.10752739  0.75030829  0.39358635  1  1.04033  0.001428  0.235909  0.408068  0.000718  4.149472  0.001
C  C107  1  0.17631617  0.19136834  0.63066719  1  1.527978  -0.009095  0.22107  0.621804  -0.014103  4.095539  -0.009
C  C108  1  0.27753886  0.29935417  0.70883818  1  0.001698  0.009576  -0.160008  -0.238168  0.005309  3.96001  0.007
C  C109  1  0.37842937  0.32863111  0.69891751  1  -0.062696  0.001775  -0.248483  -0.334287  0.001027  3.961603  0.001
C  C110  1  0.28564455  0.89455121  0.44637248  1  1.001718  0.001617  0.200151  0.277325  -0.001908  4.147735  0.001
C  C111  1  0.25275439  0.73270415  0.40232260  1  1.078333  0.004755  0.161771  0.247748  0.003263  4.044527  0.003
C  C112  1  0.45722893  0.24548004  0.47374417  1  0.964147  -0.002341  0.145573  0.198833  -0.003  3.920842  -0.001
C  C113  1  0.56986072  0.31939675  0.64104475  1  0.416697  0.005619  0.073253  -0.049145  0.003285  4.01409  0.005
C  C114  1  0.64327958  0.35722705  0.74967296  1  1.03706  0.001425  0.235899  0.407994  0.000716  4.14936  0.001
C  C115  1  0.43929023  0.98492048  0.30861982  1  1.541938  -0.009112  0.221099  0.62125  -0.014092  4.096093  -0.009
C  C116  1  0.40945333  0.97814551  0.20061984  1  -0.009858  0.009604  -0.159974  -0.237975  0.00531  3.959797  0.007
C  C117  1  0.37027527  0.04978921  0.17137675  1  -0.075372  0.001784  -0.248506  -0.334701  0.001028  3.961364  0.001
C  C118  1  0.55183893  0.39110263  0.60543420  1  0.983229  0.001527  0.200061  0.27714  -0.001916  4.147981  0.001
C  C119  1  0.66961031  0.52006325  0.76729187  1  1.07235  0.00471  0.161781  0.247622  0.003262  4.044137  0.003
C  C120  1  0.04278595  0.01650894  0.28825017  1  0.962073  -0.002295  0.145628  0.199056  -0.003008  3.920567  -0.001
C  C121  1  0.93015312  0.07118511  0.24953582  1  0.399094  0.005645  0.073278  -0.048973  0.003284  4.014051  0.005
C  C122  1  0.85672949  0.10638913  0.21393724  1  1.049379  0.001426  0.236057  0.408093  0.000717  4.149809  0.001
C  C123  1  0.06069297  0.86932305  0.04562089  1  1.535448  -0.009071  0.220981  0.621267  -0.014088  4.095989  -0.009
C  C124  1  0.09053190  0.79115769  0.06868091  1  -0.032723  0.009601  -0.160036  -0.238065  0.005312  3.95996  0.007
C  C125  1  0.12971165  0.80109959  0.17950340  1  -0.051522  0.001773  -0.248451  -0.334535  0.001028  3.961093  0.001
C  C126  1  0.94817492  0.05359329  0.33926123  1  0.987374  0.001595  0.200024  0.277125  -0.001912  4.148024  0.001
C  C127  1  0.83039436  0.09766680  0.35043902  1  1.078065  0.004731  0.161844  0.247822  0.003264  4.044239  0.003
C  C128  1  0.77173109  0.78825344  0.74547280  1  0.961576  -0.002226  0.145623  0.198779  -0.002995  3.921045  -0.001
C  C129  1  0.67833346  0.74953692  0.81938047  1  0.414597  0.005631  0.073105  -0.049454  0.003296  4.012617  0.005
C  C130  1  0.60756106  0.71395194  0.85724240  1  1.05394  0.001426  0.235982  0.408281  0.000717  4.149037  0.001
C  C131  1  0.67632461  0.54566467  0.48499896  1  1.548451  -0.009179  0.220991  0.621534  -0.014086  4.095854  -0.009
C  C132  1  0.77753403  0.56870428  0.47819882  1  -0.007123  0.009591  -0.159964  -0.23801  0.005313  3.959544  0.007
C  C133  1  0.87838849  0.67953607  0.54983804  1  -0.052988  0.001782  -0.248511  -0.334498  0.001027  3.96153  0.001
C  C134  1  0.78568922  0.83928476  0.89109561  1  0.989395  0.001661  0.200072  0.277078  -0.001889  4.148107  0.001
C  C135  1  0.75279877  0.85043360  0.02005685  1  1.071742  0.004726  0.161645  0.24756  0.003264  4.044103  0.003
C  C136  1  0.72826642  0.97375550  0.51652506  1  0.95129  -0.002299  0.145835  0.199138  -0.002992  3.920995  -0.001
C  C137  1  0.82165671  0.14105264  0.57118763  1  0.395443  0.005663  0.073111  -0.049402  0.003296  4.012448  0.005
C  C138  1  0.89243373  0.24968824  0.60638409  1  1.039994  0.001422  0.235783  0.40795  0.000715  4.149031  0.001
C  C139  1  0.82369278  0.80865806  0.36932634  1  1.527747  -0.009079  0.22098  0.621662  -0.014084  4.09574  -0.009
C  C140  1  0.72248065  0.70065481  0.29115256  1  0.001173  0.009582  -0.160019  -0.238259  0.005312  3.959771  0.007
C  C141  1  0.62162418  0.67144205  0.30113314  1  -0.061174  0.001773  -0.248482  -0.334173  0.001027  3.96148  0.001
C  C142  1  0.71430417  0.10541893  0.55359705  1  1.001707  0.001626  0.199916  0.276997  -0.001898  4.148083  0.001
C  C143  1  0.74720912  0.26726994  0.59763500  1  1.079239  0.004759  0.161737  0.247633  0.003262  4.044556  0.003
N  N144  1  0.49208306  0.77442675  0.44553730  1  -1.201847  0.066998  -0.34514  -0.317462  0.037513  3.401946  0.052
N  N145  1  0.33091138  0.70026030  0.20211319  1  -1.295073  0.007354  -0.56757  -0.605335  0.003576  3.346826  0.005
N  N146  1  0.30733698  0.54066225  0.18971546  1  -1.210132  0.016093  -0.358831  -0.447018  0.007678  3.271717  0.011
N  N147  1  0.51959636  0.65573432  0.49984123  1  -1.241234  0.073662  -0.366099  -0.395124  0.038956  3.559126  0.064
N  N148  1  0.40055639  0.50821310  0.33422060  1  -1.263138  0.074403  -0.352634  -0.35759  0.040264  3.585494  0.058
N  N149  1  0.00792922  0.95344655  0.78235177  1  -1.188627  0.06692  -0.345251  -0.317453  0.037508  3.401786  0.052
N  N150  1  0.16909248  0.87118349  0.86934212  1  -1.287089  0.007351  -0.567466  -0.605106  0.003576  3.346494  0.005
N  N151  1  0.19267788  0.88236508  0.73331775  1  -1.200783  0.016087  -0.358686  -0.446787  0.007679  3.271827  0.011
N  N152  1  0.98041840  0.98024008  0.63614237  1  -1.240205  0.07359  -0.365981  -0.394927  0.038952  3.559038  0.064
N  N153  1  0.09945601  0.93365619  0.60764553  1  -1.27002  0.074374  -0.352485  -0.357163  0.040264  3.585367  0.058
N  N154  1  0.32895646  0.28237098  0.27447175  1  -1.198102  0.067076  -0.345022  -0.317616  0.037531  3.40149  0.052
N  N155  1  0.49819890  0.36933513  0.20029104  1  -1.292032  0.007347  -0.567396  -0.605745  0.003577  3.346727  0.005
N  N156  1  0.35101119  0.23328915  0.04070516  1  -1.207164  0.016089  -0.358954  -0.447233  0.007678  3.272524  0.011
N  N157  1  0.15594808  0.13616651  0.15573945  1  -1.244468  0.073681  -0.366464  -0.395176  0.039029  3.559642  0.064
N  N158  1  0.17405845  0.10764996  0.00823376  1  -1.26792  0.074228  -0.352695  -0.357816  0.04022  3.586101  0.058
N  N159  1  0.17102596  0.94551037  0.45340508  1  -1.199821  0.067093  -0.345079  -0.317593  0.03756  3.401797  0.052
N  N160  1  0.00179243  0.70208586  0.37114243  1  -1.313504  0.007371  -0.567369  -0.605663  0.003581  3.346804  0.005
N  N161  1  0.14896885  0.68967917  0.38227690  1  -1.206117  0.016084  -0.358776  -0.447146  0.007678  3.272154  0.011
N  N162  1  0.34402378  0.99979151  0.48021222  1  -1.245856  0.073682  -0.366328  -0.395095  0.039019  3.559677  0.064
N  N163  1  0.32593449  0.83417719  0.43359833  1  -1.262402  0.07424  -0.352659  -0.357938  0.040222  3.585754  0.058
N  N164  1  0.50791030  0.22553892  0.55447344  1  -1.202557  0.067029  -0.345034  -0.317422  0.037522  3.402115  0.052
N  N165  1  0.66904705  0.29971240  0.79790459  1  -1.293795  0.007357  -0.567421  -0.605471  0.003578  3.346848  0.005
N  N166  1  0.69260030  0.45930016  0.81031177  1  -1.209753  0.016088  -0.358773  -0.447048  0.007677  3.271673  0.011
N  N167  1  0.48041764  0.34423952  0.50017814  1  -1.241038  0.073795  -0.366224  -0.395024  0.03903  3.559044  0.064
N  N168  1  0.59941098  0.49175918  0.66580784  1  -1.261933  0.074322  -0.352795  -0.358013  0.040224  3.58597  0.058
N  N169  1  0.99210084  0.04656212  0.21763032  1  -1.189167  0.066964  -0.345021  -0.317651  0.037526  3.401925  0.052
N  N170  1  0.83095653  0.12884798  0.13065385  1  -1.287015  0.007354  -0.567589  -0.605288  0.003577  3.347036  0.005
N  N171  1  0.80741806  0.11769695  0.26669204  1  -1.199945  0.016076  -0.358882  -0.447325  0.007674  3.272576  0.011
N  N172  1  0.01959937  0.01975558  0.36382522  1  -1.240181  0.073735  -0.366234  -0.395163  0.039038  3.559006  0.064
N  N173  1  0.90059794  0.06638882  0.39233691  1  -1.269259  0.074312  -0.35284  -0.358184  0.040226  3.586033  0.058
N  N174  1  0.67104942  0.71761741  0.72550769  1  -1.201878  0.067153  -0.345092  -0.31723  0.037572  3.402252  0.052
N  N175  1  0.50181064  0.63066150  0.79971526  1  -1.292335  0.007345  -0.567491  -0.606017  0.003576  3.346888  0.005
N  N176  1  0.64901624  0.76669808  0.95932603  1  -1.205614  0.016084  -0.35886  -0.447093  0.007676  3.271598  0.011
N  N177  1  0.84403575  0.86380380  0.84421606  1  -1.244784  0.073579  -0.366174  -0.39482  0.03897  3.560225  0.064
N  N178  1  0.82597598  0.89235913  0.99176631  1  -1.267625  0.074257  -0.352439  -0.357695  0.040245  3.584873  0.058
N  N179  1  0.82894366  0.05446048  0.54655763  1  -1.18796  0.067017  -0.345048  -0.317325  0.037541  3.401976  0.052
N  N180  1  0.99818998  0.29790856  0.62885048  1  -1.313032  0.007354  -0.567465  -0.605821  0.003573  3.346589  0.005
N  N181  1  0.85098075  0.31031601  0.61767700  1  -1.206194  0.016075  -0.358729  -0.446856  0.007674  3.271914  0.011
N  N182  1  0.65596038  0.00019153  0.51977839  1  -1.246691  0.073617  -0.366171  -0.394908  0.038977  3.560119  0.064
N  N183  1  0.67402097  0.16580509  0.56638780  1  -1.261642  0.074246  -0.352515  -0.357712  0.040245  3.585  0.058
O  O184  1  0.53885716  0.93528401  0.62543604  1  -1.14278  0.084579  -0.292609  -0.500924  0.043789  2.378908  0.077
O  O185  1  0.55720274  0.09038787  0.67075539  1  -1.161568  0.084072  -0.305366  -0.535959  0.043832  2.417818  0.075
O  O186  1  0.96110647  0.08655493  0.89640499  1  -1.145122  0.084593  -0.292653  -0.50095  0.043778  2.378585  0.077
O  O187  1  0.94278372  0.11354586  0.03317872  1  -1.158852  0.084004  -0.305315  -0.535937  0.043843  2.417761  0.075
O  O188  1  0.30992254  0.39650975  0.43535324  1  -1.14399  0.084719  -0.29288  -0.500975  0.043821  2.378901  0.077
O  O189  1  0.41966809  0.53324125  0.59047417  1  -1.16615  0.084005  -0.305025  -0.535872  0.043812  2.417528  0.075
O  O190  1  0.19009852  0.12540954  0.58658450  1  -1.144155  0.084723  -0.292802  -0.500979  0.043826  2.37902  0.077
O  O191  1  0.08035109  0.17079371  0.61355035  1  -1.157331  0.083964  -0.305125  -0.536137  0.043824  2.417746  0.075
O  O192  1  0.46113764  0.06464889  0.37457180  1  -1.143596  0.084592  -0.292925  -0.500889  0.043793  2.378995  0.077
O  O193  1  0.44279296  0.90954455  0.32919601  1  -1.162028  0.084035  -0.304986  -0.535423  0.043807  2.417378  0.075
O  O194  1  0.03884076  0.91342014  0.10350299  1  -1.144446  0.08462  -0.292856  -0.500944  0.043806  2.378919  0.077
O  O195  1  0.05720096  0.88640439  0.96674829  1  -1.159088  0.08395  -0.304967  -0.535438  0.043804  2.417371  0.075
O  O196  1  0.69013462  0.60354355  0.56474353  1  -1.14567  0.084704  -0.292553  -0.500903  0.043804  2.379117  0.077
O  O197  1  0.58033979  0.46683200  0.40961331  1  -1.167056  0.084075  -0.305293  -0.536058  0.043845  2.417897  0.075
O  O198  1  0.80988903  0.87458848  0.41340601  1  -1.14443  0.084668  -0.292752  -0.50109  0.043791  2.379079  0.077
O  O199  1  0.91967443  0.82926083  0.38647190  1  -1.157016  0.083979  -0.305052  -0.535875  0.043841  2.417838  0.075
