# generated using pymatgen
data_CuH4C6N4O3
_symmetry_space_group_name_H-M   'P 1'
_cell_length_a   6.85777243
_cell_length_b   8.64013978
_cell_length_c   14.95308693
_cell_angle_alpha   103.56064588
_cell_angle_beta   90.00910036
_cell_angle_gamma   113.42561669
_symmetry_Int_Tables_number   1
_chemical_formula_structural   CuH4C6N4O3
_chemical_formula_sum   'Cu4 H16 C24 N16 O12'
_cell_volume   785.96895637
_cell_formula_units_Z   4
loop_
 _symmetry_equiv_pos_site_id
 _symmetry_equiv_pos_as_xyz
  1  'x, y, z'
loop_
 _atom_site_type_symbol
 _atom_site_label
 _atom_site_symmetry_multiplicity
 _atom_site_fract_x
 _atom_site_fract_y
 _atom_site_fract_z
 _atom_site_occupancy
 _atom_site_hle17_ddec_charge
 _atom_site_hle17_ddec_spin_density
 _atom_site_hle17_ddec_sum_bond_order
 _atom_site_hle17_magmom
 _atom_site_hse06_10hf_bader_charge
 _atom_site_hse06_10hf_bader_spin_density
 _atom_site_hse06_10hf_ddec_charge
 _atom_site_hse06_10hf_ddec_spin_density
 _atom_site_hse06_10hf_ddec_sum_bond_order
 _atom_site_hse06_10hf_magmom
 _atom_site_hse06_ddec_charge
 _atom_site_hse06_ddec_spin_density
 _atom_site_hse06_ddec_sum_bond_order
 _atom_site_hse06_magmom
 _atom_site_pbe_cm5_charge
 _atom_site_pbe_ddec_charge
 _atom_site_pbe_ddec_spin_density
 _atom_site_pbe_ddec_sum_bond_order
 _atom_site_pbe_magmom
Cu  Cu0  1  0.60918558  0.54691242  0.26890955  1  0.925299  -0.594641  1.835706  -0.438  1.145627  -0.607178  0.944792  -0.748201  2.246181  -0.606  1.039916  -0.845421  2.171951  -0.712  0.749429  0.88625  -0.663017  2.300033  -0.523
Cu  Cu1  1  0.06219281  0.45300720  0.23109106  1  0.925521  0.595143  1.835949  0.438  1.143819  0.607208  0.944723  0.748692  2.246489  0.606  1.039609  0.845922  2.172503  0.712  0.748983  0.885905  0.663473  2.300759  0.523
Cu  Cu2  1  0.39081285  0.45308470  0.73108740  1  0.925406  0.594631  1.835621  0.438  1.145647  0.607176  0.944973  0.748194  2.246066  0.606  1.040005  0.84542  2.171893  0.712  0.749442  0.886349  0.663006  2.299965  0.523
Cu  Cu3  1  0.93780886  0.54699639  0.76890882  1  0.925541  -0.595126  1.835814  -0.438  1.143681  -0.6072  0.944614  -0.74868  2.246502  -0.606  1.039661  -0.845918  2.172342  -0.712  0.748941  0.885895  -0.663456  2.30068  -0.523
H  H4  1  0.11231368  0.65636749  0.00078846  1  0.126042  0.000117  0.940661  0.0  0.152435  0.000161  0.13227  0.000147  1.006364  0.0  0.13701  0.000105  1.000986  0.0  0.131214  0.128862  0.000183  1.010209  0.0
H  H5  1  0.45630109  0.34382907  0.49927523  1  0.126664  -0.000118  0.939794  0.0  0.167067  -0.00016  0.132595  -0.000149  1.006077  0.0  0.137315  -0.000106  1.000707  0.0  0.131345  0.129262  -0.000186  1.009828  0.0
H  H6  1  0.88769138  0.34362829  0.99920964  1  0.126029  -0.000121  0.940618  0.0  0.152573  -0.000161  0.132268  -0.000147  1.006328  0.0  0.136997  -0.000105  1.000961  0.0  0.131231  0.128859  -0.000183  1.01017  0.0
H  H7  1  0.54369588  0.65616804  0.50072238  1  0.126664  0.000118  0.93982  0.0  0.167176  0.00016  0.132579  0.000148  1.006108  0.0  0.1373  0.000106  1.000745  0.0  0.131334  0.129248  0.000186  1.009856  0.0
H  H8  1  0.53111279  0.91433509  0.83230658  1  0.114879  -5.4e-05  0.926536  0.0  0.142666  -8e-06  0.122785  -2.5e-05  0.989738  0.0  0.126833  -2.3e-05  0.985451  0.0  0.129503  0.119877  -2.7e-05  0.992953  0.0
H  H9  1  0.61695754  0.08590326  0.66776845  1  0.114593  4.9e-05  0.926503  0.0  0.14925  5e-06  0.122673  2.3e-05  0.989546  0.0  0.126646  2.1e-05  0.985352  0.0  0.129562  0.119818  2.4e-05  0.992715  0.0
H  H10  1  0.46889711  0.08566453  0.16769540  1  0.114933  5.3e-05  0.926484  0.0  0.142641  8e-06  0.122809  2.5e-05  0.989726  0.0  0.126859  2.3e-05  0.985438  0.0  0.12947  0.11991  2.7e-05  0.992946  0.0
H  H11  1  0.38303064  0.91409377  0.33223183  1  0.114592  -4.9e-05  0.926526  0.0  0.149249  -5e-06  0.122685  -2.3e-05  0.989535  0.0  0.126658  -2.1e-05  0.98534  0.0  0.129585  0.119835  -2.4e-05  0.992706  0.0
H  H12  1  0.84497676  0.90234873  0.91406283  1  0.129516  0.000212  0.934393  0.0  0.148516  0.000256  0.138761  0.000161  0.990265  0.0  0.142278  0.000109  0.988978  0.0  0.117802  0.136246  0.000206  0.991433  0.0
H  H13  1  0.94280182  0.09798963  0.58599340  1  0.129965  -0.00021  0.933926  0.0  0.137042  -0.000261  0.139376  -0.000161  0.989579  0.0  0.142995  -0.000109  0.988152  0.0  0.118132  0.136817  -0.000205  0.990799  0.0
H  H14  1  0.15502368  0.09764948  0.08594297  1  0.12952  -0.000212  0.934323  0.0  0.148598  -0.000256  0.138744  -0.000161  0.990224  0.0  0.14226  -0.000109  0.988938  0.0  0.117789  0.136205  -0.000206  0.991424  0.0
H  H15  1  0.05719546  0.90201393  0.41400781  1  0.129941  0.000213  0.933935  0.0  0.136868  0.000262  0.139354  0.000161  0.989583  0.0  0.142974  0.000109  0.988154  0.0  0.118115  0.136794  0.000206  0.990809  0.0
H  H16  1  0.78388779  0.76823272  0.04954699  1  0.112024  -0.000317  0.96086  0.0  0.169818  -0.000107  0.11876  -0.000142  1.027876  0.0  0.122911  -9.1e-05  1.02304  0.0  0.109549  0.115842  -0.000187  1.031193  0.0
H  H17  1  0.01595121  0.23217741  0.45055045  1  0.110834  0.000319  0.961296  0.0  0.159477  0.00011  0.117984  0.000144  1.027876  0.0  0.12213  9.2e-05  1.023061  0.0  0.109467  0.11505  0.000189  1.031194  0.0
H  H18  1  0.21611590  0.23176032  0.95045607  1  0.112074  0.000319  0.960827  0.0  0.169904  0.000107  0.118793  0.000142  1.027851  0.0  0.122942  9.1e-05  1.02302  0.0  0.10955  0.115873  0.000187  1.031169  0.0
H  H19  1  0.98405595  0.76783132  0.54945350  1  0.110896  -0.00032  0.96141  0.0  0.159402  -0.00011  0.118067  -0.000144  1.027923  0.0  0.122212  -9.2e-05  1.02311  0.0  0.109509  0.115136  -0.000189  1.031239  0.0
C  C20  1  0.44429441  0.70026630  0.03518829  1  -0.085361  -0.000984  3.745075  -0.001  0.026167  0.000104  -0.058212  2e-05  3.977769  0.0  -0.069767  -0.000117  3.997692  0.0  -0.009731  -0.050973  -1e-05  3.964298  0.0
C  C21  1  0.74442289  0.30007933  0.46496118  1  -0.08454  0.000982  3.744953  0.001  0.008  -0.000128  -0.058877  -3e-05  3.979383  0.0  -0.070251  0.000109  3.999097  0.0  -0.009755  -0.05177  1e-05  3.96607  0.0
C  C22  1  0.55570594  0.29973465  0.96481255  1  -0.085503  0.000975  3.744986  0.001  0.025693  -0.000103  -0.05833  -2.1e-05  3.977689  0.0  -0.069884  0.000117  3.997607  0.0  -0.009758  -0.051084  1e-05  3.964203  0.0
C  C23  1  0.25556124  0.69991252  0.53503703  1  -0.084457  -0.000958  3.744872  -0.001  0.007891  0.000127  -0.058757  2.9e-05  3.979222  0.0  -0.070129  -0.000107  3.998936  0.0  -0.00977  -0.051648  -1e-05  3.965903  0.0
C  C24  1  0.27743785  0.70773781  0.98597419  1  -0.002026  0.001804  3.557771  0.001  0.402839  -0.000463  -0.055764  -0.000235  3.817542  -0.001  -0.046162  -5.6e-05  3.828166  0.0  0.037899  -0.06147  -0.000217  3.810331  -0.001
C  C25  1  0.57012076  0.29260517  0.51418336  1  -0.002495  -0.001801  3.557258  -0.001  0.377884  0.000467  -0.056024  0.000236  3.817774  0.001  -0.046468  5.9e-05  3.828322  0.0  0.038461  -0.061748  0.000222  3.810561  0.001
C  C26  1  0.72256423  0.29225786  0.01402857  1  -0.001983  -0.001786  3.557551  -0.001  0.403089  0.000463  -0.055742  0.000235  3.81733  0.001  -0.046127  5.7e-05  3.82796  0.0  0.037842  -0.061439  0.000217  3.810087  0.001
C  C27  1  0.42987019  0.70739447  0.48581730  1  -0.00255  0.00178  3.557115  0.001  0.377893  -0.000467  -0.056085  -0.000236  3.817665  -0.001  -0.046543  -6e-05  3.828227  0.0  0.03848  -0.061808  -0.000221  3.81044  -0.001
C  C28  1  0.51736847  0.85463103  0.88967195  1  -0.005561  0.001517  3.601357  0.002  0.28751  0.000576  -0.056333  0.00018  3.880381  0.001  -0.049217  0.00019  3.891798  0.001  0.033351  -0.060738  0.000289  3.873037  0.001
C  C29  1  0.66301129  0.14569202  0.61042895  1  -0.003481  -0.001501  3.601699  -0.002  0.278888  -0.00057  -0.054345  -0.000177  3.880565  -0.001  -0.047169  -0.000184  3.891986  -0.001  0.034088  -0.05882  -0.000286  3.873242  -0.001
C  C30  1  0.48263770  0.14536990  0.11032956  1  -0.005719  -0.001512  3.601467  -0.002  0.287512  -0.000576  -0.056464  -0.00018  3.880428  -0.001  -0.049357  -0.000189  3.891862  -0.001  0.033347  -0.060877  -0.000288  3.873096  -0.001
C  C31  1  0.33699004  0.85430505  0.38957000  1  -0.003528  0.001482  3.601588  0.002  0.27906  0.000572  -0.054376  0.000178  3.880438  0.001  -0.047186  0.000186  3.891829  0.001  0.034066  -0.058853  0.000287  3.873113  0.001
C  C32  1  0.68646287  0.84781767  0.93650662  1  -0.073297  -0.001011  3.728168  -0.001  0.087369  0.000204  -0.086755  0.00013  3.991455  0.0  -0.091839  -6e-05  4.009094  0.0  -0.07419  -0.083816  0.000234  3.979722  0.0
C  C33  1  0.83893061  0.15258560  0.56358904  1  -0.075491  0.000998  3.729037  0.001  0.091136  -0.000202  -0.089261  -0.000131  3.992442  0.0  -0.094453  5.8e-05  4.010119  0.0  -0.07491  -0.086261  -0.000234  3.980679  0.0
C  C34  1  0.31354964  0.15218718  0.06349544  1  -0.073329  0.001012  3.728252  0.001  0.087382  -0.000203  -0.08676  -0.00013  3.991489  0.0  -0.091848  6e-05  4.009139  0.0  -0.074147  -0.083798  -0.000234  3.979771  0.0
C  C35  1  0.16106405  0.84741272  0.43641209  1  -0.075423  -0.00099  3.728848  -0.001  0.091139  0.0002  -0.089229  0.00013  3.992264  0.0  -0.094416  -5.9e-05  4.009927  0.0  -0.074914  -0.086235  0.000234  3.980508  0.0
C  C36  1  0.65232983  0.77158075  0.01068256  1  -0.018306  0.004017  3.658631  0.004  -0.032018  0.002273  -0.056551  0.001448  3.915429  0.002  -0.047461  0.00114  3.926281  0.001  -0.073  -0.061868  0.001788  3.907443  0.002
C  C37  1  0.88113461  0.22886023  0.48942703  1  -0.016364  -0.004001  3.65764  -0.004  0.010181  -0.002244  -0.054036  -0.001444  3.913939  -0.002  -0.045005  -0.001136  3.924769  -0.001  -0.072815  -0.059319  -0.00179  3.905989  -0.002
C  C38  1  0.34767279  0.22841891  0.98931743  1  -0.0183  -0.004016  3.65874  -0.004  -0.032139  -0.002273  -0.056541  -0.001448  3.915534  -0.002  -0.047449  -0.001141  3.926384  -0.001  -0.073022  -0.061857  -0.001787  3.907533  -0.002
C  C39  1  0.11885697  0.77114068  0.51057514  1  -0.016549  0.003985  3.657861  0.004  0.010214  0.002244  -0.054206  0.001445  3.914087  0.002  -0.04518  0.001136  3.924917  0.001  -0.072841  -0.05948  0.00179  3.906125  0.002
C  C40  1  0.39854587  0.61838703  0.11563456  1  0.662794  -0.000288  3.86053  0.0  1.627427  -0.000386  0.625674  -0.000369  4.145448  -0.001  0.666079  -0.000334  4.141008  -0.001  0.22563  0.598278  -0.000363  4.148123  -0.001
C  C41  1  0.78042009  0.38183551  0.38447570  1  0.662093  0.00029  3.862073  0.0  1.61959  0.000394  0.625969  0.000369  4.146046  0.001  0.666316  0.000334  4.141568  0.001  0.225214  0.598608  0.000364  4.148758  0.001
C  C42  1  0.60145435  0.38161658  0.88436465  1  0.662925  0.000287  3.860296  0.0  1.627707  0.000385  0.625745  0.000369  4.145293  0.001  0.666147  0.000334  4.140855  0.001  0.225639  0.598338  0.000363  4.147968  0.001
C  C43  1  0.21958289  0.61817069  0.61552454  1  0.662229  -0.000291  3.862109  0.0  1.619528  -0.000393  0.626139  -0.000368  4.146014  -0.001  0.666487  -0.000334  4.141539  -0.001  0.225309  0.598761  -0.000364  4.148741  -0.001
N  N44  1  0.31453366  0.78564882  0.91458625  1  0.266296  -0.000997  3.758606  -0.002  -0.670326  -0.000166  0.325627  -0.000152  4.026623  0.0  0.324349  -0.000201  4.052193  0.0  -0.114424  0.325353  -0.000137  4.009206  0.0
N  N45  1  0.52917571  0.21459301  0.58552739  1  0.264241  0.001002  3.760272  0.002  -0.660319  0.000169  0.323872  0.000155  4.028256  0.0  0.32262  0.000203  4.053767  0.0  -0.116055  0.323581  0.000136  4.010922  0.0
N  N46  1  0.68547264  0.21434944  0.08541755  1  0.266386  0.001003  3.758843  0.002  -0.670341  0.000166  0.325706  0.000152  4.026852  0.0  0.324432  0.000204  4.052413  0.0  -0.114395  0.325428  0.000137  4.009437  0.0
N  N47  1  0.47082124  0.78540405  0.41447156  1  0.264308  -0.000983  3.760393  -0.002  -0.660342  -0.00017  0.323928  -0.000155  4.028381  0.0  0.322681  -0.000204  4.05389  0.0  -0.116081  0.32364  -0.000136  4.011046  0.0
N  N48  1  0.29890149  0.39099763  0.26399554  1  -0.575795  -0.001424  2.922614  -0.001  -0.340703  0.002271  -0.63579  0.001417  3.342275  0.002  -0.691255  0.001623  3.352241  0.002  -0.372424  -0.602647  0.000649  3.338748  0.001
N  N49  1  0.90778963  0.60874212  0.23588537  1  -0.576905  0.001374  2.92375  0.001  -0.337152  -0.002227  -0.636702  -0.001398  3.343302  -0.002  -0.692235  -0.001595  3.353397  -0.002  -0.37328  -0.603487  -0.000672  3.339607  -0.001
N  N50  1  0.70109535  0.60900213  0.73600045  1  -0.576305  0.001417  2.922083  0.001  -0.34089  -0.002281  -0.636311  -0.001423  3.34177  -0.002  -0.691814  -0.001629  3.351732  -0.002  -0.372663  -0.60314  -0.000654  3.338197  -0.001
N  N51  1  0.09220909  0.39124976  0.76411151  1  -0.576793  -0.001371  2.92453  -0.001  -0.337113  0.002223  -0.636558  0.001395  3.34408  0.002  -0.692056  0.001594  3.354107  0.002  -0.373194  -0.603365  0.000669  3.340378  0.001
N  N52  1  0.25665984  0.27107003  0.30049233  1  0.415258  -1.5e-05  4.120184  0.0  -0.287917  -0.000842  0.463087  -0.00055  4.424499  -0.001  0.485593  -0.00061  4.457316  -0.001  0.097403  0.448854  -0.000422  4.402324  -0.001
N  N53  1  0.98568434  0.72879514  0.19945980  1  0.414513  4.1e-05  4.119712  0.0  -0.283041  0.000848  0.462129  0.000566  4.424233  0.001  0.484623  0.000625  4.457036  0.001  0.097869  0.447918  0.000451  4.402088  0.001
N  N54  1  0.74334182  0.72894812  0.69950092  1  0.415427  1.7e-05  4.120333  0.0  -0.287756  0.000843  0.463283  0.00055  4.424583  0.001  0.48579  0.000611  4.457392  0.001  0.09755  0.44905  0.000422  4.402413  0.001
N  N55  1  0.01432785  0.27121781  0.80053204  1  0.414656  -4.8e-05  4.11941  0.0  -0.282968  -0.000848  0.462275  -0.000566  4.423902  -0.001  0.484775  -0.000625  4.456728  -0.001  0.097975  0.448059  -0.000451  4.401747  -0.001
N  N56  1  0.22031054  0.15650711  0.33443830  1  -0.267026  -0.000643  2.381198  -0.001  0.075872  0.001776  -0.278795  0.001099  2.6102  0.001  -0.288968  0.000622  2.621302  0.001  -0.116369  -0.272753  0.001106  2.603  0.001
N  N57  1  0.06409367  0.84341816  0.16559228  1  -0.265988  0.000563  2.382012  0.001  0.068354  -0.00183  -0.277415  -0.001122  2.610897  -0.001  -0.287453  -0.00064  2.621853  -0.001  -0.116011  -0.271431  -0.001177  2.603716  -0.001
N  N58  1  0.77968279  0.84348856  0.66556446  1  -0.266664  0.000641  2.381997  0.001  0.076114  -0.001779  -0.278475  -0.001101  2.611024  -0.001  -0.288629  -0.000621  2.622116  -0.001  -0.116162  -0.272449  -0.001109  2.603826  -0.001
N  N59  1  0.93589668  0.15656574  0.83441015  1  -0.266378  -0.000555  2.380877  -0.001  0.068101  0.001834  -0.277822  0.001125  2.609765  0.001  -0.287888  0.000643  2.620741  0.001  -0.116304  -0.271829  0.001179  2.602576  0.001
O  O60  1  0.56113385  0.63820502  0.16504788  1  -0.589115  -0.063875  2.143722  -0.086  -1.15899  -0.076577  -0.555357  -0.04858  2.418284  -0.071  -0.598647  -0.037955  2.41155  -0.059  -0.306693  -0.527241  -0.054097  2.423458  -0.076
O  O61  1  0.92291283  0.36185843  0.33497432  1  -0.589727  0.06392  2.143928  0.086  -1.151222  0.076504  -0.555993  0.048579  2.418117  0.071  -0.599196  0.037951  2.411369  0.059  -0.30683  -0.527801  0.054142  2.423293  0.076
O  O62  1  0.43886686  0.36179081  0.83494822  1  -0.58918  0.06388  2.143607  0.086  -1.159057  0.076585  -0.555402  0.048584  2.418162  0.071  -0.598695  0.037955  2.411465  0.059  -0.306717  -0.527271  0.054103  2.423326  0.076
O  O63  1  0.07709211  0.63815168  0.66502648  1  -0.589709  -0.063914  2.143839  -0.086  -1.151202  -0.076498  -0.555991  -0.048576  2.418058  -0.071  -0.599211  -0.03795  2.411274  -0.059  -0.306866  -0.527821  -0.054138  2.423244  -0.076
O  O64  1  0.20214409  0.53957739  0.12618161  1  -0.602945  0.069322  2.1489  0.093  -1.148533  0.083657  -0.568177  0.052942  2.428569  0.078  -0.613102  0.040944  2.423617  0.064  -0.308856  -0.538965  0.059081  2.432476  0.084
O  O65  1  0.66289270  0.46053892  0.37386442  1  -0.603031  -0.069347  2.151272  -0.093  -1.147064  -0.083639  -0.56877  -0.052984  2.430633  -0.078  -0.613687  -0.040972  2.425471  -0.064  -0.30887  -0.539623  -0.059137  2.434549  -0.084
O  O66  1  0.79785564  0.46042232  0.87381638  1  -0.602962  -0.069327  2.148802  -0.093  -1.14858  -0.083662  -0.568169  -0.052946  2.428548  -0.078  -0.613131  -0.040945  2.423604  -0.064  -0.308856  -0.538979  -0.059086  2.43246  -0.084
O  O67  1  0.33709811  0.53945171  0.62613028  1  -0.603203  0.069342  2.15135  0.093  -1.147089  0.083635  -0.568974  0.052981  2.430701  0.078  -0.613882  0.04097  2.425545  0.064  -0.308949  -0.539808  0.059133  2.434609  0.084
O  O68  1  0.15726355  0.79557582  0.86982954  1  -0.532062  0.004443  1.761882  0.005  -0.627325  -0.000667  -0.519396  -0.000612  2.010158  -0.002  -0.547893  -0.000292  2.009152  -0.002  -0.255648  -0.498297  -0.000212  2.010587  -0.001
O  O69  1  0.36187777  0.20451929  0.63021508  1  -0.531008  -0.004437  1.762407  -0.005  -0.632227  0.000648  -0.518471  0.000599  2.010585  0.002  -0.546955  0.00028  2.009536  0.001  -0.25501  -0.497443  0.00021  2.011013  0.001
O  O70  1  0.84273795  0.20443033  0.13017271  1  -0.532004  -0.004461  1.762127  -0.005  -0.62751  0.000663  -0.51937  0.00061  2.01041  0.002  -0.547839  0.000288  2.009408  0.001  -0.255597  -0.498253  0.00021  2.010835  0.001
O  O71  1  0.63811514  0.79548428  0.36978547  1  -0.530993  0.004437  1.762575  0.005  -0.632176  -0.000647  -0.518448  -0.000598  2.010745  -0.002  -0.546954  -0.00028  2.009714  -0.001  -0.254971  -0.497437  -0.000209  2.01118  -0.001
