# generated using pymatgen
data_Zn3H4C18(ClO3)4
_symmetry_space_group_name_H-M   'P 1'
_cell_length_a   19.16229879
_cell_length_b   19.16185683
_cell_length_c   19.60842207
_cell_angle_alpha   109.35114752
_cell_angle_beta   109.35153892
_cell_angle_gamma   103.66875202
_symmetry_Int_Tables_number   1
_chemical_formula_structural   Zn3H4C18(ClO3)4
_chemical_formula_sum   'Zn6 H8 C36 Cl8 O24'
_cell_volume   5905.10650797
_cell_formula_units_Z   2
loop_
 _symmetry_equiv_pos_site_id
 _symmetry_equiv_pos_as_xyz
  1  'x, y, z'
loop_
 _atom_site_type_symbol
 _atom_site_label
 _atom_site_symmetry_multiplicity
 _atom_site_fract_x
 _atom_site_fract_y
 _atom_site_fract_z
 _atom_site_occupancy
 _atom_site_pbe_bader_charge
 _atom_site_pbe_bader_spin_density
 _atom_site_pbe_cm5_charge
 _atom_site_pbe_ddec_charge
 _atom_site_pbe_ddec_spin_density
 _atom_site_pbe_ddec_sum_bond_order
 _atom_site_pbe_magmom
Zn  Zn0  1  0.49750024  0.05504315  0.05870284  1  1.315776  0  0.749782  0.992603  0  2.041912  0
Zn  Zn1  1  0.05055980  0.05056185  0.49208174  1  1.293708  0  0.734759  0.976968  0  2.067137  0
Zn  Zn2  1  0.94943867  0.94943979  0.50791982  1  1.298314  0  0.734717  0.976955  0  2.067106  0
Zn  Zn3  1  0.50249786  0.94495285  0.94129462  1  1.316613  0  0.749739  0.992546  0  2.04183  0
Zn  Zn4  1  0.94495747  0.50250109  0.94129959  1  1.315908  0  0.749741  0.99254  0  2.041872  0
Zn  Zn5  1  0.05504448  0.49750249  0.05870637  1  1.316542  0  0.749747  0.992566  0  2.041952  0
H  H6  1  0.83718095  0.02545017  0.28352728  1  0.115605  0  0.112498  0.148991  0  0.988638  0
H  H7  1  0.34973313  0.95809393  0.73280695  1  0.132689  0  0.118597  0.145782  0  0.975357  0
H  H8  1  0.95810223  0.34973864  0.73281316  1  0.132898  0  0.118602  0.145765  0  0.975305  0
H  H9  1  0.04190373  0.65026289  0.26718532  1  0.132971  0  0.11859  0.145756  0  0.975367  0
H  H10  1  0.65026562  0.04189820  0.26717512  1  0.132834  0  0.11862  0.14575  0  0.97529  0
H  H11  1  0.16282952  0.97456657  0.71647488  1  0.116207  0  0.112442  0.148991  0  0.988582  0
H  H12  1  0.97455546  0.16282451  0.71647696  1  0.115708  0  0.112452  0.148975  0  0.988691  0
H  H13  1  0.02543429  0.83717278  0.28352931  1  0.116254  0  0.112455  0.148919  0  0.988667  0
C  C14  1  0.60673194  0.98811900  0.11279881  1  1.606149  0  0.216965  0.589979  0  4.176109  0
C  C15  1  0.61169028  0.10837519  0.00182807  1  1.663747  0  0.226141  0.659061  0  4.247914  0
C  C16  1  0.10837187  0.61169559  0.00183111  1  1.663267  0  0.22606  0.658706  0  4.247842  0
C  C17  1  0.89163296  0.38830797  0.99818042  1  1.664212  0  0.226028  0.658815  0  4.248081  0
C  C18  1  0.38830385  0.89163829  0.99818524  1  1.664474  0  0.225985  0.658642  0  4.248223  0
C  C19  1  0.32753926  0.83131530  0.99841584  1  0.085968  0  -0.000642  -0.124312  0  3.840347  0
C  C20  1  0.67245747  0.16869600  0.00159456  1  0.085359  0  -0.000809  -0.124541  0  3.840957  0
C  C21  1  0.16870353  0.67247152  0.00159716  1  0.086152  0  -0.000666  -0.124183  0  3.840971  0
C  C22  1  0.39327003  0.01186166  0.88718452  1  1.608439  0  0.217192  0.590618  0  4.176112  0
C  C23  1  0.83131282  0.32754194  0.99841406  1  0.086261  0  -0.000649  -0.124353  0  3.840692  0
C  C24  1  0.27620846  0.78013715  0.99945287  1  -0.195893  0  0.000219  0.034871  0  4.221665  0
C  C25  1  0.72378335  0.21985551  0.00054996  1  -0.148158  0  0.000215  0.035001  0  4.221932  0
C  C26  1  0.21986332  0.72379120  0.00055922  1  -0.148416  0  0.000147  0.034859  0  4.222934  0
C  C27  1  0.78013926  0.27620928  0.99944794  1  -0.195644  0  0.00014  0.034783  0  4.221568  0
C  C28  1  0.01187390  0.39327480  0.88719004  1  1.607862  0  0.217048  0.590187  0  4.176135  0
C  C29  1  0.74487129  0.00255990  0.31683337  1  0.01942  0  0.023312  0.196454  0  4.050077  0
C  C30  1  0.25513308  0.99744109  0.68315875  1  0.019023  0  0.023413  0.19673  0  4.049806  0
C  C31  1  0.99744110  0.25513097  0.68316154  1  0.019662  0  0.023268  0.196531  0  4.050066  0
C  C32  1  0.00255802  0.74486421  0.31684211  1  0.019426  0  0.023286  0.196467  0  4.050092  0
C  C33  1  0.98812346  0.60673093  0.11280641  1  1.607433  0  0.216942  0.590021  0  4.176269  0
C  C34  1  0.81978666  0.01053971  0.32609198  1  0.097064  0  -0.09828  -0.295005  0  3.851015  0
C  C35  1  0.18022155  0.98947280  0.67390694  1  0.097004  0  -0.098232  -0.294957  0  3.850644  0
C  C36  1  0.98946521  0.18021602  0.67391002  1  0.097249  0  -0.098187  -0.294991  0  3.850926  0
C  C37  1  0.01052708  0.81977789  0.32609596  1  0.096914  0  -0.098184  -0.2948  0  3.850734  0
C  C38  1  0.68676282  0.00928414  0.25172041  1  0.128676  0  -0.079262  -0.163642  0  3.947981  0
C  C39  1  0.31324011  0.99070859  0.74826482  1  0.128584  0  -0.079258  -0.163735  0  3.948336  0
C  C40  1  0.99071502  0.31324206  0.74827326  1  0.128273  0  -0.079227  -0.163681  0  3.94793  0
C  C41  1  0.00928591  0.68675782  0.25172905  1  0.127622  0  -0.079195  -0.163643  0  3.948079  0
C  C42  1  0.66991309  0.97633547  0.17264067  1  -0.044143  0  0.010673  0.016603  0  3.954865  0
C  C43  1  0.33009302  0.02365248  0.82734402  1  -0.045159  0  0.01069  0.016416  0  3.955066  0
C  C44  1  0.02365761  0.33009228  0.82735293  1  -0.045299  0  0.010661  0.016576  0  3.954976  0
C  C45  1  0.97633958  0.66990935  0.17264972  1  -0.045146  0  0.010734  0.016644  0  3.95497  0
C  C46  1  0.00686293  0.88454242  0.38991271  1  1.55215  0  0.213704  0.661243  0  4.152326  0
C  C47  1  0.99311988  0.11544369  0.61008735  1  1.552279  0  0.213725  0.661429  0  4.152608  0
C  C48  1  0.11545575  0.99313471  0.61008694  1  1.551961  0  0.213652  0.661131  0  4.152435  0
C  C49  1  0.88455472  0.00688203  0.38991522  1  1.552156  0  0.213721  0.661433  0  4.152876  0
Cl  Cl50  1  0.70966534  0.98824527  0.38382773  1  -0.175351  0  -0.002846  -0.061199  0  1.423129  0
Cl  Cl51  1  0.28553838  0.08306860  0.86719953  1  -0.166132  0  0.008784  -0.033689  0  1.516818  0
Cl  Cl52  1  0.08307006  0.28553414  0.86720370  1  -0.16617  0  0.008834  -0.033689  0  1.516928  0
Cl  Cl53  1  0.91692327  0.71446742  0.13280373  1  -0.16616  0  0.008748  -0.033796  0  1.51689  0
Cl  Cl54  1  0.71446925  0.91692095  0.13279286  1  -0.166325  0  0.008841  -0.033673  0  1.516847  0
Cl  Cl55  1  0.29033105  0.01174311  0.61615326  1  -0.174858  0  -0.002928  -0.061341  0  1.423055  0
Cl  Cl56  1  0.01175140  0.29033131  0.61616278  1  -0.175205  0  -0.002858  -0.06124  0  1.423229  0
Cl  Cl57  1  0.98825755  0.70966019  0.38384298  1  -0.174769  0  -0.002884  -0.061256  0  1.423117  0
O  O58  1  0.58054907  0.04059154  0.14182268  1  -1.142199  0  -0.309953  -0.528681  0  2.262203  0
O  O59  1  0.41561406  0.05487496  0.96182602  1  -1.15197  0  -0.312862  -0.553771  0  2.343211  0
O  O60  1  0.05487966  0.41561221  0.96183501  1  -1.15154  0  -0.312684  -0.553473  0  2.343196  0
O  O61  1  0.94511510  0.58439459  0.03816449  1  -1.151508  0  -0.312631  -0.55335  0  2.34322  0
O  O62  1  0.58439295  0.94510848  0.03815285  1  -1.150694  0  -0.312702  -0.553437  0  2.343062  0
O  O63  1  0.41018350  0.96386454  0.04988819  1  -1.12714  0  -0.304197  -0.533759  0  2.220578  0
O  O64  1  0.58981307  0.03615223  0.95012402  1  -1.12712  0  -0.304197  -0.533898  0  2.220505  0
O  O65  1  0.03614741  0.58982067  0.95012900  1  -1.126736  0  -0.304116  -0.533804  0  2.220716  0
O  O66  1  0.41944749  0.95938969  0.85815695  1  -1.142707  0  -0.309983  -0.52888  0  2.262214  0
O  O67  1  0.96385512  0.41017975  0.04987965  1  -1.127  0  -0.304164  -0.533827  0  2.220625  0
O  O68  1  0.41445390  0.86705877  0.94644307  1  -1.115168  0  -0.304968  -0.534259  0  2.218498  0
O  O69  1  0.58554340  0.13295331  0.05356830  1  -1.114363  0  -0.305004  -0.534379  0  2.218544  0
O  O70  1  0.13295506  0.58554945  0.05357728  1  -1.114331  0  -0.305035  -0.53435  0  2.218533  0
O  O71  1  0.86705480  0.41444958  0.94643340  1  -1.115142  0  -0.304949  -0.534237  0  2.218293  0
O  O72  1  0.95940304  0.41945705  0.85816729  1  -1.142393  0  -0.310016  -0.528816  0  2.262133  0
O  O73  1  0.04953854  0.95568679  0.40605056  1  -1.136859  0  -0.319997  -0.549136  0  2.225161  0
O  O74  1  0.95045179  0.04430171  0.59396106  1  -1.137129  0  -0.320067  -0.549251  0  2.225391  0
O  O75  1  0.04431359  0.95045953  0.59395233  1  -1.136957  0  -0.319966  -0.549094  0  2.225224  0
O  O76  1  0.95569672  0.04954952  0.40604152  1  -1.137092  0  -0.320005  -0.549158  0  2.225405  0
O  O77  1  0.04059246  0.58054732  0.14183010  1  -1.142105  0  -0.309986  -0.528725  0  2.26213  0
O  O78  1  0.96187232  0.86616830  0.42212388  1  -1.136642  0  -0.315075  -0.55656  0  2.288439  0
O  O79  1  0.03810157  0.13381755  0.57786794  1  -1.136422  0  -0.315073  -0.556586  0  2.288485  0
O  O80  1  0.13383124  0.03812461  0.57787408  1  -1.13647  0  -0.315046  -0.556489  0  2.288446  0
O  O81  1  0.86618183  0.96190197  0.42213642  1  -1.136292  0  -0.315088  -0.556665  0  2.288615  0
