# generated using pymatgen
data_Sr2PH8C5NO8
_symmetry_space_group_name_H-M   'P 1'
_cell_length_a   6.86219070
_cell_length_b   7.20719424
_cell_length_c   11.47081925
_cell_angle_alpha   96.13676988
_cell_angle_beta   103.87276213
_cell_angle_gamma   94.98208740
_symmetry_Int_Tables_number   1
_chemical_formula_structural   Sr2PH8C5NO8
_chemical_formula_sum   'Sr4 P2 H16 C10 N2 O16'
_cell_volume   543.87924670
_cell_formula_units_Z   2
loop_
 _symmetry_equiv_pos_site_id
 _symmetry_equiv_pos_as_xyz
  1  'x, y, z'
loop_
 _atom_site_type_symbol
 _atom_site_label
 _atom_site_symmetry_multiplicity
 _atom_site_fract_x
 _atom_site_fract_y
 _atom_site_fract_z
 _atom_site_occupancy
 _atom_site_hle17_bader_spin_density
 _atom_site_hle17_ddec_charge
 _atom_site_hle17_ddec_spin_density
 _atom_site_hle17_ddec_sum_bond_order
 _atom_site_hle17_magmom
 _atom_site_hse06_10hf_bader_spin_density
 _atom_site_hse06_10hf_ddec_charge
 _atom_site_hse06_10hf_ddec_spin_density
 _atom_site_hse06_10hf_ddec_sum_bond_order
 _atom_site_hse06_10hf_magmom
 _atom_site_hse06_bader_spin_density
 _atom_site_hse06_ddec_charge
 _atom_site_hse06_ddec_spin_density
 _atom_site_hse06_ddec_sum_bond_order
 _atom_site_hse06_magmom
 _atom_site_pbe_bader_spin_density
 _atom_site_pbe_cm5_charge
 _atom_site_pbe_ddec_charge
 _atom_site_pbe_ddec_spin_density
 _atom_site_pbe_ddec_sum_bond_order
 _atom_site_pbe_magmom
Sr  Sr0  1  0.80472863  0.66478134  0.91990222  1  0  1.596468  0  1.144039  0  0  1.452272  0  1.498096  0  0  1.490485  0  1.456922  0  0  1.03312  1.424172  0  1.527151  0
Sr  Sr1  1  0.19527302  0.33521649  0.08009703  1  0  1.596471  0  1.143983  0  0  1.45225  0  1.498095  0  0  1.490451  0  1.456951  0  0  1.033091  1.424142  0  1.527144  0
Sr  Sr2  1  0.46203961  0.85119543  0.14483279  1  0  1.668537  0  1.131503  0  0  1.534674  0  1.499755  0  0  1.570624  0  1.455527  0  0  1.027741  1.508359  0  1.53075  0
Sr  Sr3  1  0.53796240  0.14880521  0.85516756  1  0  1.668524  0  1.131529  0  0  1.534657  0  1.499781  0  0  1.570609  0  1.455553  0  0  1.027729  1.508322  0  1.530797  0
P  P4  1  0.31178396  0.63350291  0.86990643  1  0  1.488081  0  4.964857  0  0  1.337579  0  5.454767  0  0  1.38698  0  5.41699  0  0  0.29308  1.303027  0  5.480275  0
P  P5  1  0.68821824  0.36649913  0.13009492  1  0  1.4882  0  4.964757  0  0  1.337702  0  5.454651  0  0  1.387108  0  5.416862  0  0  0.293118  1.303161  0  5.480142  0
H  H6  1  0.22184557  0.64859609  0.65317551  1  0  0.109257  0  0.943062  0  0  0.119587  0  1.009374  0  0  0.122176  0  1.007831  0  0  0.109919  0.117644  0  1.010677  0
H  H7  1  0.77815645  0.35140455  0.34682572  1  0  0.10928  0  0.94304  0  0  0.119603  0  1.009354  0  0  0.122195  0  1.007807  0  0  0.109908  0.117658  0  1.010659  0
H  H8  1  0.09535589  0.45795957  0.70205570  1  0  0.126787  0  0.934864  0  0  0.142552  0  0.988956  0  0  0.144616  0  0.988204  0  0  0.131451  0.141003  0  0.98965  0
H  H9  1  0.90464595  0.54203966  0.29794541  1  0  0.12683  0  0.934889  0  0  0.142596  0  0.988967  0  0  0.144659  0  0.988217  0  0  0.131476  0.141045  0  0.989666  0
H  H10  1  0.85058998  0.94376300  0.63591929  1  0  0.107961  0  0.922212  0  0  0.121798  0  0.981964  0  0  0.124204  0  0.979917  0  0  0.121891  0.119965  0  0.983613  0
H  H11  1  0.14940717  0.05623484  0.36408019  1  0  0.107927  0  0.922298  0  0  0.121789  0  0.982007  0  0  0.124194  0  0.979957  0  0  0.121888  0.119956  0  0.983659  0
H  H12  1  0.11557582  0.93728304  0.66066524  1  0  0.097505  0  0.955492  0  0  0.109567  0  1.018391  0  0  0.112367  0  1.015911  0  0  0.110914  0.107448  0  1.020371  0
H  H13  1  0.88442116  0.06271339  0.33933500  1  0  0.097514  0  0.955433  0  0  0.109562  0  1.018353  0  0  0.112365  0  1.015865  0  0  0.110922  0.107443  0  1.020337  0
H  H14  1  0.84315019  0.57944382  0.52202090  1  0  0.086469  0  0.925271  0  0  0.099218  0  0.990846  0  0  0.101497  0  0.989276  0  0  0.102223  0.0975  0  0.99212  0
H  H15  1  0.15684733  0.42055683  0.47797969  1  0  0.086472  0  0.925234  0  0  0.099217  0  0.990834  0  0  0.101497  0  0.989259  0  0  0.102214  0.097498  0  0.992111  0
H  H16  1  0.65993939  0.67197702  0.58936535  1  0  0.111933  0  0.944017  0  0  0.125075  0  1.005397  0  0  0.127854  0  1.00345  0  0  0.120643  0.123016  0  1.006962  0
H  H17  1  0.34005963  0.32802362  0.41063633  1  0  0.111924  0  0.944028  0  0  0.125068  0  1.005418  0  0  0.127848  0  1.003472  0  0  0.120633  0.12301  0  1.006981  0
H  H18  1  0.60386071  0.09490246  0.42455585  1  0  0.433873  0  0.866714  0  0  0.403412  0  0.929992  0  0  0.41345  0  0.915028  0  0  0.296361  0.396287  0  0.940624  0
H  H19  1  0.39613962  0.90509677  0.57544505  1  0  0.433878  0  0.866694  0  0  0.403411  0  0.929987  0  0  0.413449  0  0.915022  0  0  0.296349  0.396284  0  0.940625  0
H  H20  1  0.48955765  0.88685705  0.40491699  1  0  0.407247  0  0.912159  0  0  0.372479  0  0.983478  0  0  0.384404  0  0.966053  0  0  0.285502  0.364065  0  0.995753  0
H  H21  1  0.51044172  0.11314641  0.59508318  1  0  0.40726  0  0.91214  0  0  0.372486  0  0.98347  0  0  0.384413  0  0.966043  0  0  0.285502  0.364076  0  0.995739  0
C  C22  1  0.13799210  0.61086181  0.72015754  1  0  -0.346989  0  3.665701  0  0  -0.379321  0  3.918093  0  0  -0.384755  0  3.925677  0  0  -0.067586  -0.375461  0  3.912906  0
C  C23  1  0.86200709  0.38914023  0.27984252  1  0  -0.34712  0  3.665825  0  0  -0.379415  0  3.918164  0  0  -0.384863  0  3.925776  0  0  -0.067586  -0.37555  0  3.912963  0
C  C24  1  0.98486228  0.90378732  0.69764602  1  0  -0.181481  0  3.622311  0  0  -0.231283  0  3.865925  0  0  -0.232757  0  3.871504  0  0  -0.06036  -0.230162  0  3.862067  0
C  C25  1  0.01513786  0.09621050  0.30235302  1  0  -0.181473  0  3.622425  0  0  -0.23127  0  3.866034  0  0  -0.232735  0  3.871605  0  0  -0.060352  -0.230145  0  3.862169  0
C  C26  1  0.79461635  0.59655513  0.60736429  1  0  -0.180827  0  3.671038  0  0  -0.238073  0  3.933244  0  0  -0.23958  0  3.939489  0  0  -0.070568  -0.236945  0  3.928846  0
C  C27  1  0.20538249  0.40344411  0.39263726  1  0  -0.180774  0  3.670956  0  0  -0.238062  0  3.933217  0  0  -0.239567  0  3.939463  0  0  -0.070522  -0.236941  0  3.928828  0
C  C28  1  0.00731841  0.02579560  0.81906607  1  0  0.733347  0  3.833736  0  0  0.683326  0  4.138758  0  0  0.717543  0  4.127902  0  0  0.246146  0.659962  0  4.145635  0
C  C29  1  0.99267911  0.97420505  0.18093365  1  0  0.733379  0  3.833545  0  0  0.68334  0  4.138594  0  0  0.717557  0  4.127737  0  0  0.246144  0.659975  0  4.145469  0
C  C30  1  0.72373901  0.40223164  0.63490324  1  0  0.703089  0  3.849423  0  0  0.654231  0  4.151973  0  0  0.68715  0  4.144415  0  0  0.225872  0.631876  0  4.156409  0
C  C31  1  0.27626114  0.59776619  0.36509667  1  0  0.703098  0  3.849465  0  0  0.654286  0  4.151965  0  0  0.687209  0  4.144398  0  0  0.225905  0.631932  0  4.156402  0
N  N32  1  0.95137657  0.70182305  0.70838667  1  0  -0.175899  0  3.30617  0  0  -0.099642  0  3.553051  0  0  -0.112022  0  3.573562  0  0  -0.356601  -0.090784  0  3.5384  0
N  N33  1  0.04862227  0.29817619  0.29161402  1  0  -0.175869  0  3.306078  0  0  -0.099631  0  3.553017  0  0  -0.11203  0  3.573585  0  0  -0.356606  -0.090763  0  3.538356  0
O  O34  1  0.45086090  0.82256603  0.90478492  1  0  -1.01371  0  1.938966  0  0  -0.920547  0  2.201619  0  0  -0.948447  0  2.182914  0  0  -0.476307  -0.900576  0  2.214142  0
O  O35  1  0.54913962  0.17743461  0.09521610  1  0  -1.013745  0  1.938964  0  0  -0.920589  0  2.20163  0  0  -0.948487  0  2.182922  0  0  -0.476315  -0.900621  0  2.214144  0
O  O36  1  0.17939966  0.61653464  0.96127079  1  0  -0.993383  0  1.941151  0  0  -0.899287  0  2.207249  0  0  -0.926577  0  2.18706  0  0  -0.48723  -0.879764  0  2.220829  0
O  O37  1  0.82060235  0.38346600  0.03872956  1  0  -0.993388  0  1.941074  0  0  -0.899296  0  2.207165  0  0  -0.926584  0  2.18697  0  0  -0.487237  -0.879776  0  2.220741  0
O  O38  1  0.44412223  0.47525439  0.86112925  1  0  -0.982525  0  2.011449  0  0  -0.895452  0  2.273517  0  0  -0.923099  0  2.255103  0  0  -0.469777  -0.875473  0  2.285373  0
O  O39  1  0.55587996  0.52474765  0.13887122  1  0  -0.982563  0  2.011394  0  0  -0.895489  0  2.273457  0  0  -0.923133  0  2.255037  0  0  -0.469802  -0.875516  0  2.285306  0
O  O40  1  0.74635131  0.37542590  0.74468822  1  0  -0.713165  0  1.986371  0  0  -0.650139  0  2.228164  0  0  -0.676219  0  2.219739  0  0  -0.365862  -0.631823  0  2.233335  0
O  O41  1  0.25364885  0.62457193  0.25531256  1  0  -0.713159  0  1.986432  0  0  -0.650166  0  2.228245  0  0  -0.67623  0  2.219794  0  0  -0.365877  -0.63186  0  2.233434  0
O  O42  1  0.63786538  0.28051794  0.54393912  1  0  -0.670169  0  1.994975  0  0  -0.607323  0  2.219012  0  0  -0.634061  0  2.207802  0  0  -0.320788  -0.588677  0  2.226317  0
O  O43  1  0.36213345  0.71948130  0.45606070  1  0  -0.670222  0  1.995001  0  0  -0.607385  0  2.219025  0  0  -0.634126  0  2.207812  0  0  -0.320824  -0.588743  0  2.226337  0
O  O44  1  0.86393394  0.99826277  0.87095431  1  0  -0.78493  0  2.021695  0  0  -0.723511  0  2.287992  0  0  -0.749716  0  2.27472  0  0  -0.415124  -0.705008  0  2.296668  0
O  O45  1  0.13606789  0.00173647  0.12904505  1  0  -0.784956  0  2.021521  0  0  -0.723514  0  2.287801  0  0  -0.749726  0  2.274549  0  0  -0.415143  -0.705011  0  2.296473  0
O  O46  1  0.16021208  0.14645068  0.86162159  1  0  -0.710727  0  1.96959  0  0  -0.649089  0  2.218272  0  0  -0.675009  0  2.207087  0  0  -0.362577  -0.631085  0  2.225694  0
O  O47  1  0.83978487  0.85354575  0.13837516  1  0  -0.710735  0  1.969445  0  0  -0.649089  0  2.218125  0  0  -0.675009  0  2.206942  0  0  -0.362591  -0.631092  0  2.225552  0
O  O48  1  0.56366556  0.97943864  0.36627155  1  0  -0.916745  0  1.790664  0  0  -0.862075  0  1.975952  0  0  -0.881082  0  1.941787  0  0  -0.652061  -0.848525  0  1.999903  0
O  O49  1  0.43633178  0.02056060  0.63372980  1  0  -0.916754  0  1.790619  0  0  -0.862084  0  1.975901  0  0  -0.881092  0  1.941736  0  0  -0.652046  -0.848529  0  1.999841  0
