# generated using pymatgen
data_CuH5C5NCl2
_symmetry_space_group_name_H-M   'P 1'
_cell_length_a   3.78164369
_cell_length_b   11.89972430
_cell_length_c   14.92008114
_cell_angle_alpha   90.00202703
_cell_angle_beta   89.99905550
_cell_angle_gamma   100.29273691
_symmetry_Int_Tables_number   1
_chemical_formula_structural   CuH5C5NCl2
_chemical_formula_sum   'Cu4 H20 C20 N4 Cl8'
_cell_volume   660.60681243
_cell_formula_units_Z   4
loop_
 _symmetry_equiv_pos_site_id
 _symmetry_equiv_pos_as_xyz
  1  'x, y, z'
loop_
 _atom_site_type_symbol
 _atom_site_label
 _atom_site_symmetry_multiplicity
 _atom_site_fract_x
 _atom_site_fract_y
 _atom_site_fract_z
 _atom_site_occupancy
 _atom_site_hle17_ddec_charge
 _atom_site_hle17_ddec_spin_density
 _atom_site_hle17_ddec_sum_bond_order
 _atom_site_hle17_magmom
 _atom_site_hse06_10hf_ddec_charge
 _atom_site_hse06_10hf_ddec_spin_density
 _atom_site_hse06_10hf_ddec_sum_bond_order
 _atom_site_hse06_10hf_magmom
 _atom_site_hse06_ddec_charge
 _atom_site_hse06_ddec_spin_density
 _atom_site_hse06_ddec_sum_bond_order
 _atom_site_hse06_magmom
 _atom_site_pbe_cm5_charge
 _atom_site_pbe_ddec_charge
 _atom_site_pbe_ddec_spin_density
 _atom_site_pbe_ddec_sum_bond_order
 _atom_site_pbe_magmom
Cu  Cu0  1  0.79798315  0.91092523  0.58305472  1  0.71303  0.60407  1.956037  0.434  0.717811  0.710597  2.347894  0.555  0.812819  0.780118  2.268515  0.641  0.515426  0.666328  0.668532  2.39634  0.507
Cu  Cu1  1  0.20201057  0.58908426  0.08305025  1  0.713171  0.604089  1.956055  0.434  0.717978  0.710601  2.347924  0.555  0.812996  0.780126  2.268546  0.641  0.515478  0.666505  0.668544  2.396371  0.507
Cu  Cu2  1  0.20201240  0.08907538  0.41694825  1  0.713  0.604056  1.955895  0.434  0.717742  0.710573  2.347731  0.555  0.812752  0.780107  2.268357  0.641  0.515352  0.666277  0.668518  2.396179  0.507
Cu  Cu3  1  0.79797467  0.41092224  0.91695138  1  0.713088  0.604068  1.95598  0.434  0.717936  0.710595  2.347821  0.555  0.812955  0.780116  2.268431  0.641  0.515443  0.666451  0.668536  2.396261  0.507
H  H4  1  0.63863591  0.07942909  0.71387312  1  0.083345  0.001985  0.959925  0.002  0.092833  0.001914  1.025014  0.002  0.095029  0.001398  1.022453  0.001  0.105218  0.09113  0.002298  1.026917  0.002
H  H5  1  0.36135509  0.42058539  0.21385445  1  0.083253  0.001984  0.960053  0.002  0.092859  0.001912  1.025044  0.002  0.095138  0.001397  1.022379  0.001  0.105128  0.091152  0.002296  1.026945  0.002
H  H6  1  0.36136007  0.92057238  0.28613052  1  0.083328  0.001988  0.959879  0.002  0.092827  0.001916  1.02497  0.002  0.095009  0.001399  1.022418  0.001  0.105206  0.091123  0.0023  1.026871  0.002
H  H7  1  0.63864215  0.57941864  0.78613712  1  0.083332  0.001983  0.960029  0.002  0.09289  0.001912  1.025053  0.002  0.095109  0.001397  1.022459  0.001  0.10515  0.091178  0.002296  1.026952  0.002
H  H8  1  0.95196749  0.76451625  0.73016143  1  0.079955  0.001266  0.972236  0.002  0.087518  0.001191  1.040729  0.002  0.08943  0.000836  1.038724  0.001  0.103919  0.086005  0.001465  1.042245  0.002
H  H9  1  0.04803962  0.73549963  0.23016178  1  0.079947  0.001269  0.972007  0.002  0.087534  0.001193  1.04051  0.002  0.089448  0.000837  1.038504  0.001  0.103914  0.086021  0.001467  1.042032  0.002
H  H10  1  0.04804695  0.23549045  0.26984087  1  0.079995  0.001265  0.972202  0.002  0.087566  0.001191  1.040701  0.002  0.089478  0.000836  1.038697  0.001  0.103944  0.086056  0.001465  1.04222  0.002
H  H11  1  0.95195731  0.26449844  0.76984789  1  0.079908  0.001268  0.971967  0.002  0.087515  0.001193  1.040459  0.002  0.08943  0.000837  1.038454  0.001  0.103957  0.086008  0.001467  1.041979  0.002
H  H12  1  0.59611462  0.09505297  0.88015203  1  0.106764  0.000854  0.985183  0.001  0.115554  0.001056  1.049112  0.001  0.119103  0.00079  1.047102  0.001  0.09236  0.113021  0.001255  1.05059  0.001
H  H13  1  0.40387087  0.40495328  0.38013406  1  0.106732  0.000853  0.984996  0.001  0.115444  0.001056  1.049015  0.001  0.119035  0.00079  1.046954  0.001  0.092279  0.112884  0.001255  1.050517  0.001
H  H14  1  0.40388993  0.90496048  0.11985161  1  0.10677  0.000853  0.985338  0.001  0.115568  0.001056  1.049217  0.001  0.119159  0.00079  1.047156  0.001  0.092316  0.113003  0.001254  1.050723  0.001
H  H15  1  0.59615773  0.59503395  0.61985818  1  0.106715  0.000854  0.985003  0.001  0.115487  0.001056  1.048951  0.001  0.119089  0.00079  1.046881  0.001  0.09225  0.112917  0.001255  1.050461  0.001
H  H16  1  0.91145545  0.76361479  0.89849303  1  0.112898  0.000781  0.979716  0.001  0.121526  0.001046  1.04117  0.001  0.125261  0.000776  1.038846  0.001  0.091264  0.119045  0.001247  1.042513  0.001
H  H17  1  0.08849788  0.73639176  0.39849590  1  0.112996  0.000778  0.979644  0.001  0.121613  0.001046  1.041138  0.001  0.125367  0.000776  1.038768  0.001  0.091297  0.11913  0.001246  1.042471  0.001
H  H18  1  0.08856080  0.23639022  0.10151061  1  0.112853  0.000781  0.979777  0.001  0.121519  0.001046  1.041249  0.001  0.12527  0.000776  1.03888  0.001  0.091272  0.11904  0.001248  1.0426  0.001
H  H19  1  0.91149567  0.26359948  0.60151444  1  0.11301  0.00078  0.979672  0.001  0.121635  0.001045  1.041134  0.001  0.125388  0.000776  1.038765  0.001  0.091279  0.119136  0.001247  1.042516  0.001
H  H20  1  0.72785268  0.92990735  0.97525609  1  0.093669  0.000581  0.95479  0.001  0.106524  0.000291  1.012897  0.0  0.108796  0.000135  1.011352  0.0  0.102408  0.104878  0.000429  1.014054  0.0
H  H21  1  0.27208980  0.57009135  0.47524877  1  0.093717  0.000582  0.954791  0.001  0.106686  0.000291  1.012796  0.0  0.108895  0.000135  1.011317  0.0  0.102388  0.105026  0.000428  1.013946  0.0
H  H22  1  0.27214542  0.07009839  0.02474554  1  0.093672  0.000582  0.954829  0.001  0.106555  0.000291  1.012887  0.0  0.108823  0.000135  1.011349  0.0  0.10237  0.104909  0.000429  1.014042  0.0
H  H23  1  0.72791991  0.42988979  0.52475219  1  0.093683  0.00058  0.955016  0.001  0.106675  0.000291  1.012974  0.0  0.108881  0.000135  1.011502  0.0  0.10238  0.105022  0.000429  1.014122  0.0
C  C24  1  0.69959676  0.01231149  0.75774714  1  0.121279  -0.009316  3.672653  -0.007  0.09239  0.000914  3.92401  0.001  0.10109  -0.001754  3.943998  -0.001  0.038363  0.08713  0.002843  3.910862  0.002
C  C25  1  0.30041307  0.48770330  0.25773264  1  0.12124  -0.009358  3.672739  -0.007  0.092238  0.000914  3.924126  0.001  0.100895  -0.001757  3.944099  -0.001  0.038289  0.086978  0.002842  3.910973  0.002
C  C26  1  0.30042033  0.98769523  0.24225650  1  0.121415  -0.009335  3.672743  -0.007  0.092481  0.000912  3.924107  0.001  0.101181  -0.001754  3.944135  -0.001  0.038398  0.087223  0.002842  3.91094  0.002
C  C27  1  0.69956475  0.51229890  0.74225692  1  0.121191  -0.009325  3.672718  -0.007  0.092232  0.000914  3.92411  0.001  0.100919  -0.001753  3.944111  -0.001  0.038304  0.086979  0.002842  3.910934  0.002
C  C28  1  0.86883220  0.83429915  0.76705717  1  0.120575  -0.011341  3.67777  -0.008  0.091081  -0.000622  3.929149  0.0  0.099467  -0.003159  3.950061  -0.002  0.03902  0.08591  0.001233  3.915533  0.001
C  C29  1  0.13115835  0.66570884  0.26705652  1  0.12053  -0.011374  3.677848  -0.008  0.091026  -0.00062  3.929314  0.0  0.099416  -0.003156  3.950237  -0.002  0.038986  0.085853  0.001234  3.915713  0.001
C  C30  1  0.13118032  0.16571435  0.23294647  1  0.12051  -0.011361  3.677597  -0.008  0.090986  -0.000623  3.929044  0.0  0.099365  -0.003157  3.949961  -0.002  0.039045  0.085816  0.001235  3.915442  0.001
C  C31  1  0.86880909  0.33428307  0.73294243  1  0.120592  -0.01135  3.67791  -0.008  0.091024  -0.000621  3.929422  0.0  0.099403  -0.003155  3.95035  -0.002  0.038901  0.085848  0.001234  3.91582  0.001
C  C32  1  0.67535810  0.01954515  0.85055510  1  -0.118155  0.013499  3.730341  0.014  -0.128207  0.005417  3.976314  0.006  -0.135542  0.004716  3.997303  0.005  -0.087116  -0.123357  0.005928  3.962018  0.006
C  C33  1  0.32460135  0.48046390  0.35053895  1  -0.117884  0.013521  3.730459  0.014  -0.127824  0.005413  3.976475  0.006  -0.135194  0.004713  3.997443  0.005  -0.086897  -0.122947  0.005924  3.962182  0.006
C  C34  1  0.32462545  0.98045793  0.14944385  1  -0.118234  0.013518  3.730365  0.014  -0.128295  0.005421  3.976326  0.006  -0.135658  0.004717  3.99727  0.005  -0.087141  -0.12342  0.005932  3.962034  0.006
C  C35  1  0.67541386  0.51952834  0.64945732  1  -0.117917  0.013498  3.730478  0.014  -0.127909  0.005413  3.976456  0.006  -0.135285  0.004711  3.997402  0.005  -0.086931  -0.123028  0.005923  3.962148  0.006
C  C36  1  0.84910735  0.83532148  0.86004533  1  -0.106971  0.0136  3.713545  0.014  -0.114846  0.005454  3.953804  0.006  -0.121662  0.004715  3.97384  0.005  -0.084614  -0.110314  0.005998  3.939948  0.006
C  C37  1  0.15083926  0.66468848  0.36003853  1  -0.106867  0.013635  3.713428  0.014  -0.114736  0.005455  3.953713  0.006  -0.121545  0.004717  3.973736  0.005  -0.084501  -0.110193  0.005999  3.939871  0.006
C  C38  1  0.15088109  0.16468078  0.13995429  1  -0.106756  0.013613  3.713629  0.014  -0.114733  0.005455  3.953948  0.006  -0.121541  0.004714  3.973999  0.005  -0.084591  -0.110208  0.005999  3.940103  0.006
C  C39  1  0.84915960  0.33530280  0.63996444  1  -0.107049  0.013612  3.713621  0.014  -0.114884  0.005454  3.95389  0.006  -0.121693  0.004714  3.973918  0.005  -0.084544  -0.110341  0.005999  3.940062  0.006
C  C40  1  0.74893851  0.92911870  0.90244946  1  0.000695  -0.01439  3.704808  -0.01  -0.016186  -0.003253  3.946511  -0.002  -0.012113  -0.004639  3.964374  -0.003  -0.065427  -0.018738  -0.002147  3.934378  -0.002
C  C41  1  0.25103392  0.57087880  0.40244091  1  0.000427  -0.014436  3.704744  -0.01  -0.016578  -0.003253  3.946431  -0.002  -0.012457  -0.004641  3.964335  -0.003  -0.065515  -0.019108  -0.002148  3.934269  -0.002
C  C42  1  0.25106924  0.07089051  0.09755686  1  0.000613  -0.014403  3.704953  -0.01  -0.016227  -0.003252  3.946607  -0.002  -0.012166  -0.004634  3.964498  -0.003  -0.065346  -0.018769  -0.002145  3.934458  -0.002
C  C43  1  0.74895360  0.42910560  0.59755469  1  0.000514  -0.01441  3.704587  -0.01  -0.016511  -0.003254  3.94624  -0.002  -0.012392  -0.00464  3.964146  -0.003  -0.06545  -0.019044  -0.002147  3.934081  -0.002
N  N44  1  0.79386285  0.92117913  0.71689663  1  -0.289769  0.092208  3.385881  0.115  -0.23327  0.065903  3.670945  0.087  -0.268694  0.055234  3.700021  0.078  -0.351287  -0.213213  0.071129  3.653947  0.09
N  N45  1  0.20611277  0.57884107  0.21688449  1  -0.289874  0.092217  3.385873  0.115  -0.233435  0.065896  3.671122  0.087  -0.268892  0.05523  3.700249  0.078  -0.351318  -0.213384  0.071118  3.654143  0.09
N  N46  1  0.20612305  0.07881801  0.28309628  1  -0.289838  0.092237  3.386261  0.115  -0.233254  0.065915  3.67129  0.087  -0.268684  0.05524  3.700369  0.078  -0.351271  -0.213198  0.071143  3.654293  0.09
N  N47  1  0.79387959  0.42116377  0.78310574  1  -0.28974  0.09222  3.385603  0.115  -0.233296  0.065903  3.67084  0.087  -0.268732  0.055233  3.699934  0.078  -0.351229  -0.213239  0.071131  3.653842  0.09
Cl  Cl48  1  0.30198980  0.77032625  0.58310012  1  -0.490093  0.127343  1.078522  0.152  -0.49516  0.081027  1.379724  0.103  -0.52953  0.0604  1.353728  0.084  -0.27464  -0.475154  0.093908  1.398038  0.113
Cl  Cl49  1  0.69803600  0.72967326  0.08309734  1  -0.490067  0.127346  1.078578  0.152  -0.495142  0.081031  1.37978  0.103  -0.529514  0.060401  1.353794  0.084  -0.274609  -0.475129  0.093905  1.398081  0.113
Cl  Cl50  1  0.69802264  0.22967108  0.41690218  1  -0.490093  0.12732  1.078498  0.152  -0.495139  0.081016  1.379687  0.103  -0.529503  0.060392  1.353685  0.084  -0.274637  -0.475137  0.093883  1.398015  0.113
Cl  Cl51  1  0.30195998  0.27032821  0.91690295  1  -0.490026  0.127345  1.078511  0.152  -0.495131  0.081029  1.379739  0.103  -0.529503  0.060401  1.353743  0.084  -0.274599  -0.475116  0.093898  1.398049  0.113
Cl  Cl52  1  0.21220734  0.07980251  0.57206455  1  -0.427233  0.178882  1.306831  0.212  -0.437556  0.129074  1.652436  0.161  -0.483453  0.100439  1.627032  0.135  -0.2249  -0.412668  0.145885  1.671282  0.174
Cl  Cl53  1  0.78781013  0.42019587  0.07206470  1  -0.427279  0.17887  1.306804  0.212  -0.437627  0.129067  1.652442  0.161  -0.48354  0.100433  1.627063  0.135  -0.224901  -0.412743  0.145883  1.671286  0.174
Cl  Cl54  1  0.78778652  0.92019469  0.42793507  1  -0.427262  0.178885  1.306799  0.212  -0.437614  0.129074  1.652447  0.161  -0.483511  0.100438  1.627048  0.135  -0.224919  -0.412732  0.145895  1.671287  0.174
Cl  Cl55  1  0.21220124  0.57980996  0.92792955  1  -0.427303  0.17888  1.306722  0.212  -0.437692  0.12907  1.652383  0.161  -0.483592  0.100434  1.626993  0.135  -0.224924  -0.412804  0.145894  1.671217  0.174
