# generated using pymatgen
data_TbH9C5(NO4)2
_symmetry_space_group_name_H-M   'P 1'
_cell_length_a   6.56861600
_cell_length_b   6.72213242
_cell_length_c   6.72226389
_cell_angle_alpha   64.18454962
_cell_angle_beta   73.13389640
_cell_angle_gamma   73.13266917
_symmetry_Int_Tables_number   1
_chemical_formula_structural   TbH9C5(NO4)2
_chemical_formula_sum   'Tb1 H9 C5 N2 O8'
_cell_volume   251.04100454
_cell_formula_units_Z   1
loop_
 _symmetry_equiv_pos_site_id
 _symmetry_equiv_pos_as_xyz
  1  'x, y, z'
loop_
 _atom_site_type_symbol
 _atom_site_label
 _atom_site_symmetry_multiplicity
 _atom_site_fract_x
 _atom_site_fract_y
 _atom_site_fract_z
 _atom_site_occupancy
 _atom_site_hle17_bader_spin_density
 _atom_site_hle17_ddec_charge
 _atom_site_hle17_ddec_spin_density
 _atom_site_hle17_ddec_sum_bond_order
 _atom_site_hle17_magmom
 _atom_site_hse06_10hf_bader_spin_density
 _atom_site_hse06_10hf_ddec_charge
 _atom_site_hse06_10hf_ddec_spin_density
 _atom_site_hse06_10hf_ddec_sum_bond_order
 _atom_site_hse06_10hf_magmom
 _atom_site_hse06_bader_spin_density
 _atom_site_hse06_ddec_charge
 _atom_site_hse06_ddec_spin_density
 _atom_site_hse06_ddec_sum_bond_order
 _atom_site_hse06_magmom
 _atom_site_pbe_bader_spin_density
 _atom_site_pbe_cm5_charge
 _atom_site_pbe_ddec_charge
 _atom_site_pbe_ddec_spin_density
 _atom_site_pbe_ddec_sum_bond_order
 _atom_site_pbe_magmom
Tb  Tb0  1  0.99999924  0.48917894  0.51081544  1  0  2.222044  0  1.670134  0  0  2.066039  0  2.14944  0  0  2.195329  0  1.957545  0  0  1.475635  2.030592  0  2.178729  0
H  H1  1  0.60137989  0.84663850  0.71803179  1  0  0.351341  0  0.889104  0  0  0.329716  0  0.953911  0  0  0.339415  0  0.945513  0  0  0.3098  0.322811  0  0.960041  0
H  H2  1  0.39862469  0.28199371  0.15333260  1  0  0.351434  0  0.888966  0  0  0.329785  0  0.953817  0  0  0.339504  0  0.945391  0  0  0.309831  0.322879  0  0.959949  0
H  H3  1  0.47224421  0.74732386  0.00842995  1  0  0.342043  0  0.891937  0  0  0.320506  0  0.959668  0  0  0.32908  0  0.952329  0  0  0.310083  0.314615  0  0.964319  0
H  H4  1  0.52776786  0.99157939  0.25268602  1  0  0.341951  0  0.89177  0  0  0.320488  0  0.959444  0  0  0.329044  0  0.952114  0  0  0.310066  0.314638  0  0.964032  0
H  H5  1  0.17803833  0.01885200  0.96050762  1  0  0.013554  0  0.925426  0  0  0.022657  0  0.999891  0  0  0.024  0  0.99493  0  0  0.127318  0.021421  0  1.003868  0
H  H6  1  0.82197255  0.03948440  0.98116319  1  0  0.013593  0  0.925496  0  0  0.022647  0  0.999985  0  0  0.023985  0  0.99503  0  0  0.127339  0.021416  0  1.003955  0
H  H7  1  0.87648728  0.64362470  0.98001289  1  0  0.002914  0  0.937071  0  0  0.011245  0  1.012006  0  0  0.012307  0  1.006552  0  0  0.114808  0.010201  0  1.016204  0
H  H8  1  0.12351380  0.01996426  0.35641722  1  0  0.002884  0  0.937172  0  0  0.011186  0  1.012141  0  0  0.012239  0  1.006691  0  0  0.114811  0.010139  0  1.016342  0
H  H9  1  0.49998568  0.40835118  0.59166100  1  0  0.021018  0  0.96274  0  0  0.028116  0  1.033473  0  0  0.028834  0  1.028722  0  0  0.121127  0.027235  0  1.037495  0
C  C10  1  0.29807345  0.01737938  0.80716982  1  0  0.576523  0  3.819457  0  0  0.504454  0  4.118396  0  0  0.534392  0  4.118718  0  0  0.193008  0.484398  0  4.119864  0
C  C11  1  0.70194409  0.19281072  0.98262028  1  0  0.576618  0  3.81932  0  0  0.504588  0  4.118255  0  0  0.534528  0  4.118565  0  0  0.193126  0.484525  0  4.119739  0
C  C12  1  0.04183861  0.53920140  0.98027011  1  0  0.635938  0  3.883555  0  0  0.565498  0  4.192577  0  0  0.599829  0  4.187892  0  0  0.16162  0.542649  0  4.198786  0
C  C13  1  0.95815168  0.01972466  0.46081578  1  0  0.635916  0  3.883593  0  0  0.565526  0  4.192557  0  0  0.599863  0  4.187865  0  0  0.161635  0.542686  0  4.198756  0
C  C14  1  0.49999373  0.56214581  0.43785211  1  0  0.629677  0  3.843841  0  0  0.558568  0  4.149598  0  0  0.594298  0  4.142642  0  0  0.156169  0.53428  0  4.158432  0
N  N15  1  0.47068008  0.85663438  0.84518430  1  0  -0.599287  0  3.118856  0  0  -0.558372  0  3.364518  0  0  -0.579601  0  3.355902  0  0  -0.545749  -0.543293  0  3.368825  0
N  N16  1  0.52934557  0.15483060  0.14333749  1  0  -0.599304  0  3.118807  0  0  -0.558473  0  3.364497  0  0  -0.579693  0  3.355861  0  0  -0.545787  -0.543434  0  3.368743  0
O  O17  1  0.26622165  0.16010647  0.61566634  1  0  -0.659462  0  2.084791  0  0  -0.59974  0  2.344881  0  0  -0.635224  0  2.334702  0  0  -0.384486  -0.582341  0  2.349263  0
O  O18  1  0.73378508  0.38432894  0.83987145  1  0  -0.659614  0  2.084533  0  0  -0.599866  0  2.34453  0  0  -0.635352  0  2.334346  0  0  -0.384597  -0.582469  0  2.348919  0
O  O19  1  0.12799656  0.49435960  0.14645141  1  0  -0.718732  0  2.112663  0  0  -0.657314  0  2.377254  0  0  -0.695463  0  2.364134  0  0  -0.405936  -0.638786  0  2.383352  0
O  O20  1  0.87198585  0.85354969  0.50564359  1  0  -0.718729  0  2.112687  0  0  -0.657301  0  2.377162  0  0  -0.695446  0  2.364038  0  0  -0.405955  -0.638781  0  2.383258  0
O  O21  1  0.33261770  0.64018925  0.34814553  1  0  -0.698935  0  2.055158  0  0  -0.640192  0  2.316092  0  0  -0.676339  0  2.302539  0  0  -0.382604  -0.621835  0  2.323297  0
O  O22  1  0.66737059  0.65184307  0.35980737  1  0  -0.698918  0  2.055271  0  0  -0.640169  0  2.316156  0  0  -0.676335  0  2.302645  0  0  -0.382537  -0.621782  0  2.323298  0
O  O23  1  0.13147783  0.47315828  0.82155403  1  0  -0.682246  0  2.111566  0  0  -0.624805  0  2.369098  0  0  -0.66161  0  2.359475  0  0  -0.374349  -0.605889  0  2.372382  0
O  O24  1  0.86850916  0.17844593  0.52684775  1  0  -0.68222  0  2.111615  0  0  -0.624783  0  2.369118  0  0  -0.661582  0  2.35949  0  0  -0.374377  -0.605876  0  2.372396  0
