# generated using pymatgen
data_ZnH16C20(NO)4
_symmetry_space_group_name_H-M   'P 1'
_cell_length_a   7.04184778
_cell_length_b   7.04178629
_cell_length_c   19.62396585
_cell_angle_alpha   89.45209022
_cell_angle_beta   89.45252485
_cell_angle_gamma   114.60687914
_symmetry_Int_Tables_number   1
_chemical_formula_structural   ZnH16C20(NO)4
_chemical_formula_sum   'Zn2 H32 C40 N8 O8'
_cell_volume   884.58800461
_cell_formula_units_Z   2
loop_
 _symmetry_equiv_pos_site_id
 _symmetry_equiv_pos_as_xyz
  1  'x, y, z'
loop_
 _atom_site_type_symbol
 _atom_site_label
 _atom_site_symmetry_multiplicity
 _atom_site_fract_x
 _atom_site_fract_y
 _atom_site_fract_z
 _atom_site_occupancy
 _atom_site_hle17_bader_spin_density
 _atom_site_hle17_ddec_charge
 _atom_site_hle17_ddec_spin_density
 _atom_site_hle17_ddec_sum_bond_order
 _atom_site_hle17_magmom
 _atom_site_hse06_10hf_bader_spin_density
 _atom_site_hse06_10hf_ddec_charge
 _atom_site_hse06_10hf_ddec_spin_density
 _atom_site_hse06_10hf_ddec_sum_bond_order
 _atom_site_hse06_10hf_magmom
 _atom_site_hse06_bader_spin_density
 _atom_site_hse06_ddec_charge
 _atom_site_hse06_ddec_spin_density
 _atom_site_hse06_ddec_sum_bond_order
 _atom_site_hse06_magmom
 _atom_site_pbe_bader_spin_density
 _atom_site_pbe_cm5_charge
 _atom_site_pbe_ddec_charge
 _atom_site_pbe_ddec_spin_density
 _atom_site_pbe_ddec_sum_bond_order
 _atom_site_pbe_magmom
Zn  Zn0  1  0.35315267  0.64685446  0.75000194  1  0  1.004239  0  1.860712  0  0  0.814247  0  2.337276  0  0  0.860246  0  2.284211  0  0  0.701184  0.782176  0  2.373726  0
Zn  Zn1  1  0.64685070  0.35314088  0.25000024  1  0  1.004232  0  1.860728  0  0  0.814274  0  2.337272  0  0  0.860275  0  2.284208  0  0  0.701232  0.782216  0  2.373711  0
H  H2  1  0.82030305  0.90792731  0.81389593  1  0  0.116127  0  0.955363  0  0  0.120239  0  1.024851  0  0  0.123711  0  1.02059  0  0  0.139322  0.11762  0  1.028029  0
H  H3  1  0.09206537  0.17971296  0.68610162  1  0  0.116039  0  0.955371  0  0  0.120206  0  1.024786  0  0  0.123678  0  1.020527  0  0  0.139332  0.117586  0  1.027967  0
H  H4  1  0.17969370  0.09207266  0.18610982  1  0  0.116092  0  0.955348  0  0  0.120191  0  1.024835  0  0  0.12366  0  1.02058  0  0  0.139325  0.117571  0  1.028015  0
H  H5  1  0.90791845  0.82030307  0.31389139  1  0  0.116126  0  0.955401  0  0  0.120252  0  1.024848  0  0  0.123724  0  1.020588  0  0  0.139337  0.117632  0  1.028028  0
H  H6  1  0.31439104  0.34576876  0.87454871  1  0  0.116974  0  0.987125  0  0  0.123592  0  1.050225  0  0  0.126787  0  1.048285  0  0  0.116495  0.121238  0  1.051807  0
H  H7  1  0.65424453  0.68561349  0.62545451  1  0  0.117003  0  0.98715  0  0  0.123669  0  1.050192  0  0  0.126868  0  1.048243  0  0  0.116484  0.121313  0  1.051774  0
H  H8  1  0.68560370  0.65422973  0.12545449  1  0  0.117009  0  0.987118  0  0  0.123626  0  1.050209  0  0  0.126821  0  1.04827  0  0  0.116519  0.121273  0  1.051787  0
H  H9  1  0.34576795  0.31438333  0.37454919  1  0  0.11706  0  0.987156  0  0  0.123688  0  1.050223  0  0  0.126884  0  1.048281  0  0  0.116503  0.121335  0  1.051798  0
H  H10  1  0.64418135  0.42899164  0.96529429  1  0  0.112234  0  0.986479  0  0  0.119109  0  1.052778  0  0  0.121336  0  1.053099  0  0  0.119139  0.117499  0  1.052671  0
H  H11  1  0.57100115  0.35581583  0.53470728  1  0  0.112229  0  0.986544  0  0  0.11915  0  1.052791  0  0  0.121379  0  1.053106  0  0  0.119144  0.11754  0  1.052682  0
H  H12  1  0.35581223  0.57100065  0.03470689  1  0  0.112253  0  0.986551  0  0  0.119177  0  1.052794  0  0  0.121407  0  1.053112  0  0  0.119149  0.117567  0  1.052686  0
H  H13  1  0.42900010  0.64418114  0.46529287  1  0  0.112211  0  0.986595  0  0  0.119149  0  1.052822  0  0  0.12138  0  1.053135  0  0  0.119143  0.117539  0  1.052714  0
H  H14  1  0.15469262  0.90270025  0.83067793  1  0  0.12496  0  0.947179  0  0  0.133741  0  1.008129  0  0  0.137429  0  1.00537  0  0  0.112899  0.131073  0  1.010176  0
H  H15  1  0.09729098  0.84530064  0.66932180  1  0  0.124942  0  0.947197  0  0  0.133722  0  1.008154  0  0  0.13741  0  1.005393  0  0  0.112878  0.131053  0  1.010201  0
H  H16  1  0.84528917  0.09728427  0.16932328  1  0  0.124949  0  0.947174  0  0  0.13368  0  1.008194  0  0  0.137369  0  1.005434  0  0  0.112876  0.131011  0  1.010242  0
H  H17  1  0.90271632  0.15470729  0.33067679  1  0  0.124948  0  0.947177  0  0  0.133704  0  1.008167  0  0  0.137392  0  1.005407  0  0  0.11287  0.131035  0  1.010214  0
H  H18  1  0.49963588  0.04710889  0.87989086  1  0  0.090594  0  0.97129  0  0  0.101623  0  1.03387  0  0  0.103724  0  1.033585  0  0  0.101318  0.100051  0  1.034274  0
H  H19  1  0.95289372  0.50036568  0.62010440  1  0  0.090565  0  0.971377  0  0  0.101635  0  1.033912  0  0  0.103739  0  1.033623  0  0  0.101291  0.100059  0  1.034316  0
H  H20  1  0.50036143  0.95288518  0.12010114  1  0  0.090585  0  0.971391  0  0  0.101655  0  1.033923  0  0  0.10376  0  1.033631  0  0  0.101291  0.10007  0  1.034335  0
H  H21  1  0.04711866  0.49963749  0.37989572  1  0  0.090607  0  0.97134  0  0  0.101654  0  1.033888  0  0  0.103756  0  1.033603  0  0  0.101305  0.100087  0  1.034283  0
H  H22  1  0.22112454  0.84373845  0.08054576  1  0  0.091095  0  0.993164  0  0  0.098148  0  1.063583  0  0  0.101153  0  1.061479  0  0  0.098613  0.095992  0  1.065093  0
H  H23  1  0.15626549  0.77889064  0.41945390  1  0  0.091111  0  0.993066  0  0  0.098149  0  1.063507  0  0  0.101153  0  1.061403  0  0  0.098632  0.095993  0  1.065011  0
H  H24  1  0.77889593  0.15627720  0.91945433  1  0  0.091075  0  0.993136  0  0  0.098104  0  1.063589  0  0  0.101107  0  1.061484  0  0  0.098622  0.095952  0  1.065087  0
H  H25  1  0.84371870  0.22110960  0.58054422  1  0  0.091083  0  0.993118  0  0  0.09813  0  1.063557  0  0  0.101131  0  1.061455  0  0  0.09863  0.09598  0  1.065049  0
H  H26  1  0.87913263  0.69658255  0.03050887  1  0  0.10463  0  0.95644  0  0  0.116968  0  1.01654  0  0  0.119573  0  1.015927  0  0  0.106003  0.115124  0  1.017075  0
H  H27  1  0.30340841  0.12089108  0.46948988  1  0  0.104635  0  0.956567  0  0  0.117055  0  1.01657  0  0  0.119661  0  1.015957  0  0  0.106052  0.115198  0  1.017125  0
H  H28  1  0.12088971  0.30341738  0.96949327  1  0  0.104678  0  0.956536  0  0  0.117041  0  1.0166  0  0  0.119648  0  1.015985  0  0  0.10605  0.115185  0  1.017153  0
H  H29  1  0.69657284  0.87911555  0.53050416  1  0  0.104638  0  0.956622  0  0  0.117043  0  1.016637  0  0  0.11965  0  1.016022  0  0  0.10604  0.115188  0  1.017189  0
H  H30  1  0.77760657  0.35767538  0.80709731  1  0  -0.00608  0  0.936284  0  0  0.005661  0  1.009464  0  0  0.00528  0  1.00562  0  0  0.098382  0.005794  0  1.012231  0
H  H31  1  0.64233260  0.22239325  0.69289840  1  0  -0.006029  0  0.936388  0  0  0.005697  0  1.00956  0  0  0.005313  0  1.005718  0  0  0.098414  0.005828  0  1.012329  0
H  H32  1  0.22238379  0.64231564  0.19289317  1  0  -0.006079  0  0.93633  0  0  0.005651  0  1.0095  0  0  0.005267  0  1.005661  0  0  0.098387  0.005784  0  1.012266  0
H  H33  1  0.35766059  0.77759451  0.30709617  1  0  -0.006066  0  0.936307  0  0  0.005678  0  1.009491  0  0  0.005296  0  1.005645  0  0  0.098372  0.005809  0  1.012261  0
C  C34  1  0.72622380  0.76328298  0.84102694  1  0  0.18969  0  3.587248  0  0  0.126048  0  3.855782  0  0  0.141246  0  3.865432  0  0  0.155419  0.116106  0  3.849167  0
C  C35  1  0.23671232  0.27379068  0.65897220  1  0  0.189736  0  3.587254  0  0  0.126062  0  3.855756  0  0  0.14126  0  3.865403  0  0  0.155363  0.116121  0  3.849144  0
C  C36  1  0.27377222  0.23671860  0.15897779  1  0  0.189568  0  3.587221  0  0  0.125971  0  3.855733  0  0  0.141166  0  3.865382  0  0  0.155375  0.116029  0  3.849119  0
C  C37  1  0.76327147  0.72622533  0.34102182  1  0  0.189642  0  3.587284  0  0  0.126027  0  3.855782  0  0  0.141227  0  3.86543  0  0  0.155408  0.116086  0  3.849169  0
C  C38  1  0.46756736  0.47459543  0.87679555  1  0  -0.006165  0  3.743818  0  0  -0.040829  0  4.009191  0  0  -0.038867  0  4.027441  0  0  -0.003979  -0.042135  0  3.996969  0
C  C39  1  0.52541258  0.53244475  0.62320668  1  0  -0.006349  0  3.74387  0  0  -0.041098  0  4.009265  0  0  -0.039139  0  4.027515  0  0  -0.004067  -0.042404  0  3.997043  0
C  C40  1  0.53243465  0.52539673  0.12320867  1  0  -0.006351  0  3.744012  0  0  -0.041024  0  4.009405  0  0  -0.039065  0  4.027658  0  0  -0.0041  -0.042333  0  3.997185  0
C  C41  1  0.47460138  0.46755212  0.37679497  1  0  -0.006378  0  3.743851  0  0  -0.041055  0  4.009255  0  0  -0.039093  0  4.027508  0  0  -0.004006  -0.042364  0  3.997034  0
C  C42  1  0.62774851  0.51418838  0.92129773  1  0  -0.067628  0  3.679605  0  0  -0.107317  0  3.942209  0  0  -0.106313  0  3.961005  0  0  -0.000439  -0.107878  0  3.929523  0
C  C43  1  0.48580662  0.37226054  0.57870317  1  0  -0.067597  0  3.679398  0  0  -0.107301  0  3.941973  0  0  -0.106299  0  3.960769  0  0  -0.000439  -0.107861  0  3.929284  0
C  C44  1  0.37225498  0.48580386  0.07870344  1  0  -0.067786  0  3.679512  0  0  -0.107492  0  3.94207  0  0  -0.106492  0  3.96087  0  0  -0.000492  -0.108053  0  3.929383  0
C  C45  1  0.51419733  0.62773952  0.42129799  1  0  -0.067571  0  3.679423  0  0  -0.107301  0  3.942001  0  0  -0.106301  0  3.960797  0  0  -0.000437  -0.107862  0  3.929314  0
C  C46  1  0.99309592  0.78758514  0.92701979  1  0  0.176591  0  3.773991  0  0  0.171775  0  4.016044  0  0  0.176456  0  4.039122  0  0  0.094542  0.168579  0  4.000625  0
C  C47  1  0.21241146  0.00691756  0.57297969  1  0  0.176556  0  3.774053  0  0  0.171757  0  4.016109  0  0  0.17644  0  4.039188  0  0  0.094614  0.168562  0  4.000686  0
C  C48  1  0.00690551  0.21240554  0.07298138  1  0  0.176541  0  3.774008  0  0  0.171743  0  4.016046  0  0  0.176422  0  4.03913  0  0  0.094579  0.168549  0  4.000624  0
C  C49  1  0.78758934  0.99309514  0.42701788  1  0  0.17648  0  3.774057  0  0  0.171701  0  4.016073  0  0  0.176382  0  4.039154  0  0  0.094553  0.168507  0  4.00065  0
C  C50  1  0.16937189  0.89074047  0.88552084  1  0  -0.131622  0  3.720441  0  0  -0.15322  0  3.97183  0  0  -0.156334  0  3.991605  0  0  -0.085669  -0.151069  0  3.958598  0
C  C51  1  0.10925257  0.83063764  0.61447940  1  0  -0.131503  0  3.720495  0  0  -0.153111  0  3.97188  0  0  -0.156227  0  3.991656  0  0  -0.085634  -0.150961  0  3.958647  0
C  C52  1  0.83062461  0.10924866  0.11448085  1  0  -0.131528  0  3.720314  0  0  -0.153097  0  3.97171  0  0  -0.15621  0  3.991486  0  0  -0.085654  -0.150945  0  3.958473  0
C  C53  1  0.89074820  0.16937503  0.38551919  1  0  -0.131478  0  3.7204  0  0  -0.153069  0  3.971778  0  0  -0.156182  0  3.991552  0  0  -0.085638  -0.150919  0  3.958546  0
C  C54  1  0.36643174  0.97250976  0.91434946  1  0  -0.092595  0  3.735897  0  0  -0.110253  0  3.981405  0  0  -0.112877  0  4.004348  0  0  -0.086508  -0.108423  0  3.96588  0
C  C55  1  0.02749126  0.63357629  0.58565042  1  0  -0.092591  0  3.736052  0  0  -0.110255  0  3.981599  0  0  -0.112878  0  4.004539  0  0  -0.086522  -0.108417  0  3.966069  0
C  C56  1  0.63357110  0.02748415  0.08564763  1  0  -0.092625  0  3.735993  0  0  -0.110309  0  3.981527  0  0  -0.112928  0  4.004457  0  0  -0.086523  -0.108463  0  3.965999  0
C  C57  1  0.97251736  0.36643154  0.41435173  1  0  -0.092729  0  3.736007  0  0  -0.110389  0  3.981562  0  0  -0.113011  0  4.004499  0  0  -0.086549  -0.108559  0  3.966031  0
C  C58  1  0.39467462  0.95726850  0.98486282  1  0  0.036076  0  3.77147  0  0  0.051415  0  4.000694  0  0  0.051204  0  4.024644  0  0  -0.014278  0.051585  0  3.984379  0
C  C59  1  0.04274220  0.60533666  0.51513659  1  0  0.036013  0  3.771486  0  0  0.051218  0  4.000908  0  0  0.051009  0  4.024857  0  0  -0.014311  0.051387  0  3.984594  0
C  C60  1  0.60533480  0.04274103  0.01513423  1  0  0.035837  0  3.771553  0  0  0.05109  0  4.000881  0  0  0.050881  0  4.02483  0  0  -0.014323  0.05126  0  3.984563  0
C  C61  1  0.95726512  0.39466805  0.48486557  1  0  0.035959  0  3.771482  0  0  0.051247  0  4.000845  0  0  0.051037  0  4.024795  0  0  -0.014274  0.051416  0  3.984533  0
C  C62  1  0.21314247  0.85636725  0.02544578  1  0  -0.1058  0  3.753524  0  0  -0.127392  0  4.006843  0  0  -0.129468  0  4.027425  0  0  -0.09304  -0.125806  0  3.992914  0
C  C63  1  0.14362905  0.78687379  0.47455437  1  0  -0.105703  0  3.75342  0  0  -0.127236  0  4.006774  0  0  -0.129313  0  4.027356  0  0  -0.092996  -0.12565  0  3.992846  0
C  C64  1  0.78687853  0.14363276  0.97455382  1  0  -0.105606  0  3.753489  0  0  -0.12716  0  4.006835  0  0  -0.129233  0  4.027414  0  0  -0.09296  -0.125574  0  3.992909  0
C  C65  1  0.85635785  0.21312955  0.52544476  1  0  -0.105567  0  3.753434  0  0  -0.127152  0  4.006802  0  0  -0.129226  0  4.027383  0  0  -0.092978  -0.125566  0  3.992876  0
C  C66  1  0.01546220  0.77132182  0.99722039  1  0  -0.134576  0  3.747915  0  0  -0.156151  0  3.999519  0  0  -0.159287  0  4.020565  0  0  -0.090418  -0.154097  0  3.98551  0
C  C67  1  0.22866718  0.98455955  0.50277725  1  0  -0.134749  0  3.748137  0  0  -0.156385  0  3.999692  0  0  -0.159523  0  4.02074  0  0  -0.090546  -0.154325  0  3.985686  0
C  C68  1  0.98455725  0.22868130  0.00278023  1  0  -0.134696  0  3.748184  0  0  -0.156291  0  3.999759  0  0  -0.159428  0  4.020805  0  0  -0.090498  -0.154233  0  3.985755  0
C  C69  1  0.77131109  0.01545017  0.49721883  1  0  -0.13469  0  3.748124  0  0  -0.156324  0  3.99971  0  0  -0.159462  0  4.020756  0  0  -0.090491  -0.154266  0  3.985705  0
C  C70  1  0.94465102  0.38940827  0.79837001  1  0  0.557834  0  3.973526  0  0  0.488395  0  4.282304  0  0  0.52137  0  4.27512  0  0  0.127403  0.466078  0  4.28637  0
C  C71  1  0.61059893  0.05535424  0.70163454  1  0  0.557893  0  3.973501  0  0  0.488472  0  4.282235  0  0  0.521451  0  4.275048  0  0  0.127423  0.466152  0  4.286302  0
C  C72  1  0.05534546  0.61058406  0.20162862  1  0  0.557736  0  3.97346  0  0  0.488327  0  4.282227  0  0  0.521303  0  4.27504  0  0  0.127334  0.46601  0  4.286291  0
C  C73  1  0.38940506  0.94464262  0.29836916  1  0  0.557816  0  3.97348  0  0  0.488381  0  4.282232  0  0  0.521356  0  4.27505  0  0  0.127448  0.466063  0  4.286294  0
N  N74  1  0.79111682  0.69652607  0.89801045  1  0  -0.084169  0  3.590188  0  0  0.005616  0  3.799457  0  0  -0.009396  0  3.825465  0  0  -0.220628  0.015532  0  3.781853  0
N  N75  1  0.30346647  0.20889318  0.60199093  1  0  -0.084029  0  3.59003  0  0  0.005698  0  3.799361  0  0  -0.009315  0  3.825366  0  0  -0.220594  0.015615  0  3.781754  0
N  N76  1  0.20887798  0.30346925  0.10199429  1  0  -0.08388  0  3.589958  0  0  0.005876  0  3.799201  0  0  -0.009135  0  3.82521  0  0  -0.220523  0.015794  0  3.781592  0
N  N77  1  0.69652093  0.79111804  0.39800616  1  0  -0.08402  0  3.590076  0  0  0.005725  0  3.79936  0  0  -0.009286  0  3.825365  0  0  -0.220585  0.015642  0  3.781753  0
N  N78  1  0.53040550  0.63143550  0.82751621  1  0  -0.38452  0  3.314678  0  0  -0.300925  0  3.616789  0  0  -0.321352  0  3.628272  0  0  -0.357503  -0.287147  0  3.60885  0
N  N79  1  0.36856322  0.46960968  0.67248335  1  0  -0.384476  0  3.314819  0  0  -0.300826  0  3.616885  0  0  -0.321249  0  3.628367  0  0  -0.357419  -0.287047  0  3.608943  0
N  N80  1  0.46959278  0.36856135  0.17248903  1  0  -0.384359  0  3.314821  0  0  -0.300752  0  3.616874  0  0  -0.321167  0  3.628349  0  0  -0.357459  -0.286975  0  3.608938  0
N  N81  1  0.63143138  0.53039838  0.32751322  1  0  -0.384487  0  3.314771  0  0  -0.300906  0  3.61688  0  0  -0.321336  0  3.628367  0  0  -0.357527  -0.287128  0  3.608945  0
O  O82  1  0.04978368  0.56328162  0.76636862  1  0  -0.617592  0  2.082441  0  0  -0.540484  0  2.362344  0  0  -0.569238  0  2.347692  0  0  -0.340377  -0.520318  0  2.371541  0
O  O83  1  0.43670689  0.95021788  0.73362531  1  0  -0.617646  0  2.082242  0  0  -0.54054  0  2.362134  0  0  -0.569292  0  2.347478  0  0  -0.340427  -0.520387  0  2.371363  0
O  O84  1  0.95021461  0.43670141  0.23362645  1  0  -0.61749  0  2.082337  0  0  -0.540387  0  2.362232  0  0  -0.569139  0  2.347574  0  0  -0.34031  -0.520239  0  2.371463  0
O  O85  1  0.56328128  0.04977147  0.26636977  1  0  -0.617606  0  2.082396  0  0  -0.540494  0  2.362274  0  0  -0.569251  0  2.347626  0  0  -0.340412  -0.520329  0  2.371468  0
O  O86  1  0.01122116  0.26079767  0.81918137  1  0  -0.588117  0  1.967615  0  0  -0.532826  0  2.194771  0  0  -0.556211  0  2.187084  0  0  -0.327283  -0.516423  0  2.199503  0
O  O87  1  0.73922562  0.98877988  0.68084039  1  0  -0.588203  0  1.967726  0  0  -0.532871  0  2.194786  0  0  -0.556258  0  2.187096  0  0  -0.327282  -0.516467  0  2.199523  0
O  O88  1  0.98876779  0.73920073  0.18082643  1  0  -0.588066  0  1.967516  0  0  -0.53282  0  2.194688  0  0  -0.556209  0  2.187008  0  0  -0.327293  -0.516416  0  2.19942  0
O  O89  1  0.26079631  0.01121965  0.31917755  1  0  -0.588094  0  1.967564  0  0  -0.532808  0  2.194706  0  0  -0.556189  0  2.187019  0  0  -0.3273  -0.516406  0  2.199437  0
