# generated using pymatgen
data_SrCd2H16(C12O7)2
_symmetry_space_group_name_H-M   'P 1'
_cell_length_a   10.59173769
_cell_length_b   14.32387959
_cell_length_c   14.74890000
_cell_angle_alpha   87.82718133
_cell_angle_beta   68.98215421
_cell_angle_gamma   68.29879014
_symmetry_Int_Tables_number   1
_chemical_formula_structural   SrCd2H16(C12O7)2
_chemical_formula_sum   'Sr2 Cd4 H32 C48 O28'
_cell_volume   1929.10819812
_cell_formula_units_Z   2
loop_
 _symmetry_equiv_pos_site_id
 _symmetry_equiv_pos_as_xyz
  1  'x, y, z'
loop_
 _atom_site_type_symbol
 _atom_site_label
 _atom_site_symmetry_multiplicity
 _atom_site_fract_x
 _atom_site_fract_y
 _atom_site_fract_z
 _atom_site_occupancy
 _atom_site_hle17_bader_spin_density
 _atom_site_hle17_ddec_charge
 _atom_site_hle17_ddec_spin_density
 _atom_site_hle17_ddec_sum_bond_order
 _atom_site_hle17_magmom
 _atom_site_hse06_10hf_bader_spin_density
 _atom_site_hse06_10hf_ddec_charge
 _atom_site_hse06_10hf_ddec_spin_density
 _atom_site_hse06_10hf_ddec_sum_bond_order
 _atom_site_hse06_10hf_magmom
 _atom_site_hse06_bader_spin_density
 _atom_site_hse06_ddec_charge
 _atom_site_hse06_ddec_spin_density
 _atom_site_hse06_ddec_sum_bond_order
 _atom_site_hse06_magmom
 _atom_site_pbe_bader_charge
 _atom_site_pbe_bader_spin_density
 _atom_site_pbe_cm5_charge
 _atom_site_pbe_ddec_charge
 _atom_site_pbe_ddec_spin_density
 _atom_site_pbe_ddec_sum_bond_order
 _atom_site_pbe_magmom
Sr  Sr0  1  0.45904589  0.25001570  0.75011162  1  0  1.667628  0  1.140497  0  0  1.536206  0  1.506214  0  0  1.574512  0  1.458226  0  1.700999  0  1.023639  1.507884  0  1.540264  0
Sr  Sr1  1  0.54095439  0.74998511  0.24988957  1  0  1.667629  0  1.140479  0  0  1.536214  0  1.506188  0  0  1.574519  0  1.458201  0  1.701058  0  1.023656  1.507893  0  1.540236  0
Cd  Cd2  1  0.53984436  0.46002713  0.61082800  1  0  1.252935  0  1.579309  0  0  1.077112  0  2.018434  0  0  1.139633  0  1.955926  0  1.339959  0  0.79637  1.032103  0  2.061416  0
Cd  Cd3  1  0.61074545  0.04004433  0.88924405  1  0  1.25226  0  1.577241  0  0  1.076488  0  2.015947  0  0  1.139115  0  1.953455  0  1.334958  0  0.79611  1.031352  0  2.059012  0
Cd  Cd4  1  0.46015677  0.53997216  0.38917234  1  0  1.252912  0  1.579323  0  0  1.077089  0  2.018446  0  0  1.139611  0  1.955938  0  1.339974  0  0.796357  1.032075  0  2.061435  0
Cd  Cd5  1  0.38925585  0.95995648  0.11075619  1  0  1.252265  0  1.577262  0  0  1.076498  0  2.01598  0  0  1.139125  0  1.953488  0  1.334951  0  0.796128  1.031362  0  2.059046  0
H  H6  1  0.61659318  0.10460282  0.51323877  1  0  0.098131  0  0.957993  0  0  0.105768  0  1.0241  0  0  0.10916  0  1.022301  0  0.072562  0  0.109645  0.103319  0  1.025478  0
H  H7  1  0.23415554  0.39552458  0.98690663  1  0  0.097162  0  0.958395  0  0  0.104724  0  1.024806  0  0  0.108131  0  1.022967  0  0.105012  0  0.109345  0.102241  0  1.026233  0
H  H8  1  0.38340854  0.89539723  0.48676140  1  0  0.098167  0  0.957974  0  0  0.105818  0  1.024062  0  0  0.109211  0  1.022263  0  0.072547  0  0.109657  0.103368  0  1.025442  0
H  H9  1  0.76584272  0.60447622  0.01309372  1  0  0.097167  0  0.958382  0  0  0.104726  0  1.024796  0  0  0.108134  0  1.022955  0  0.10505  0  0.109334  0.10224  0  1.026227  0
H  H10  1  0.62815080  0.97161034  0.40241336  1  0  0.103904  0  0.941953  0  0  0.11306  0  1.000785  0  0  0.116769  0  0.998838  0  0.109124  0  0.108371  0.110369  0  1.002308  0
H  H11  1  0.00193954  0.52844302  0.09767775  1  0  0.104284  0  0.941494  0  0  0.113423  0  1.000248  0  0  0.117199  0  0.998217  0  0.104661  0  0.108463  0.110694  0  1.001798  0
H  H12  1  0.37185176  0.02838820  0.59758732  1  0  0.103888  0  0.941997  0  0  0.113053  0  1.000818  0  0  0.116762  0  0.998872  0  0.109147  0  0.108391  0.110378  0  1.002324  0
H  H13  1  0.99806075  0.47155778  0.90232207  1  0  0.104279  0  0.941468  0  0  0.113427  0  1.00022  0  0  0.117207  0  0.998187  0  0.104677  0  0.108446  0.110697  0  1.00177  0
H  H14  1  0.45239912  0.19980589  0.23458961  1  0  0.098002  0  0.947324  0  0  0.106892  0  1.007623  0  0  0.110856  0  1.005016  0  0.08482  0  0.103294  0.104026  0  1.009601  0
H  H15  1  0.88672115  0.30009700  0.26540573  1  0  0.098356  0  0.945327  0  0  0.106826  0  1.006294  0  0  0.110829  0  1.003632  0  0.074647  0  0.103203  0.103927  0  1.0083  0
H  H16  1  0.54760367  0.80019038  0.76540974  1  0  0.098026  0  0.947317  0  0  0.106942  0  1.00758  0  0  0.110906  0  1.004973  0  0.084901  0  0.103294  0.104075  0  1.00956  0
H  H17  1  0.11327711  0.69990381  0.73459394  1  0  0.098326  0  0.945369  0  0  0.106802  0  1.006332  0  0  0.110811  0  1.003663  0  0.074644  0  0.103189  0.103903  0  1.008339  0
H  H18  1  0.44539683  0.33255955  0.34191799  1  0  0.11641  0  0.972306  0  0  0.123714  0  1.037106  0  0  0.127789  0  1.03359  0  0.130299  0  0.104796  0.120664  0  1.039854  0
H  H19  1  0.11977494  0.16741515  0.15808760  1  0  0.116462  0  0.973011  0  0  0.123452  0  1.038185  0  0  0.127567  0  1.034594  0  0.143916  0  0.104975  0.1205  0  1.040802  0
H  H20  1  0.55460126  0.66743974  0.65808178  1  0  0.116378  0  0.97233  0  0  0.123684  0  1.037133  0  0  0.127759  0  1.033616  0  0.130284  0  0.1048  0.120634  0  1.03988  0
H  H21  1  0.88022232  0.83258565  0.84191165  1  0  0.116424  0  0.97303  0  0  0.12342  0  1.038191  0  0  0.127536  0  1.034599  0  0.143929  0  0.10496  0.120465  0  1.040808  0
H  H22  1  0.50953232  0.33819486  0.93670747  1  0  0.101103  0  0.983315  0  0  0.106847  0  1.052815  0  0  0.110826  0  1.049833  0  0.107877  0  0.106932  0.103958  0  1.055077  0
H  H23  1  0.78435160  0.16179118  0.56318953  1  0  0.100779  0  0.982484  0  0  0.106623  0  1.052074  0  0  0.110597  0  1.049089  0  0.121622  0  0.106922  0.103749  0  1.054325  0
H  H24  1  0.49046672  0.66180821  0.06329192  1  0  0.101091  0  0.983345  0  0  0.106851  0  1.052832  0  0  0.110823  0  1.04985  0  0.108176  0  0.10693  0.103963  0  1.055093  0
H  H25  1  0.21564750  0.83820811  0.43680863  1  0  0.100778  0  0.982521  0  0  0.106636  0  1.052093  0  0  0.11061  0  1.049109  0  0.1216  0  0.106917  0.103762  0  1.054343  0
H  H26  1  0.53900820  0.62818307  0.88608891  1  0  0.099601  0  0.944108  0  0  0.109351  0  1.003948  0  0  0.112989  0  1.001718  0  0.069801  0  0.103903  0.106751  0  1.005581  0
H  H27  1  0.05331889  0.87178563  0.61390740  1  0  0.099767  0  0.94375  0  0  0.10949  0  1.00362  0  0  0.113119  0  1.001401  0  0.071968  0  0.103919  0.106889  0  1.00524  0
H  H28  1  0.46099108  0.37181773  0.11391185  1  0  0.099626  0  0.94407  0  0  0.109374  0  1.003908  0  0  0.113013  0  1.001678  0  0.069788  0  0.103906  0.106774  0  1.005542  0
H  H29  1  0.94668021  0.12821366  0.38609144  1  0  0.099764  0  0.943736  0  0  0.109479  0  1.003613  0  0  0.113123  0  1.001376  0  0.071825  0  0.103898  0.106878  0  1.005234  0
H  H30  1  0.83989018  0.34544479  0.48072926  1  0  0.422276  0  0.822581  0  0  0.410257  0  0.868622  0  0  0.41769  0  0.860939  0  0.620143  0  0.326514  0.404894  0  0.87428  0
H  H31  1  0.66602917  0.15458585  0.01937056  1  0  0.422494  0  0.821602  0  0  0.410345  0  0.867932  0  0  0.417795  0  0.860205  0  0.615745  0  0.326416  0.404983  0  0.873582  0
H  H32  1  0.16010910  0.65455601  0.51927015  1  0  0.422268  0  0.822593  0  0  0.410249  0  0.868632  0  0  0.417683  0  0.860948  0  0.620135  0  0.32651  0.404887  0  0.874288  0
H  H33  1  0.33396868  0.84541571  0.98062851  1  0  0.422386  0  0.821731  0  0  0.4103  0  0.867961  0  0  0.417751  0  0.860231  0  0.615761  0  0.326406  0.404938  0  0.87361  0
H  H34  1  0.76218471  0.43169185  0.42571368  1  0  0.436998  0  0.861607  0  0  0.401506  0  0.931779  0  0  0.413042  0  0.915159  0  0.656401  0  0.290834  0.393339  0  0.943523  0
H  H35  1  0.61965902  0.06828437  0.07431973  1  0  0.435573  0  0.863615  0  0  0.400441  0  0.933388  0  0  0.411951  0  0.916788  0  0.654513  0  0.29024  0.392295  0  0.945112  0
H  H36  1  0.23781474  0.56831047  0.57428631  1  0  0.436985  0  0.861629  0  0  0.401487  0  0.931813  0  0  0.413023  0  0.915192  0  0.656406  0  0.290824  0.39332  0  0.943557  0
H  H37  1  0.38034126  0.93171644  0.92567942  1  0  0.435567  0  0.863618  0  0  0.400436  0  0.933386  0  0  0.411945  0  0.916786  0  0.654515  0  0.290244  0.39229  0  0.945109  0
C  C38  1  0.53176593  0.22701487  0.43409624  1  0  -0.068735  0  3.757543  0  0  -0.044484  0  3.988406  0  0  -0.053265  0  4.012031  0  -0.049279  0  -0.01445  -0.038679  0  3.972388  0
C  C39  1  0.19260986  0.27301123  0.06592256  1  0  -0.068318  0  3.753712  0  0  -0.044756  0  3.985037  0  0  -0.053583  0  4.008701  0  -0.042524  0  -0.01436  -0.038933  0  3.969022  0
C  C40  1  0.46823705  0.77298291  0.56590368  1  0  -0.068783  0  3.7574  0  0  -0.044531  0  3.988291  0  0  -0.053312  0  4.011917  0  -0.049277  0  -0.014484  -0.038727  0  3.972272  0
C  C41  1  0.80739043  0.72698957  0.93407659  1  0  -0.068214  0  3.753599  0  0  -0.044707  0  3.984961  0  0  -0.053531  0  4.008623  0  -0.042378  0  -0.014397  -0.038885  0  3.968946  0
C  C42  1  0.58224019  0.12515601  0.45153240  1  0  -0.068352  0  3.732135  0  0  -0.09368  0  3.984308  0  0  -0.094209  0  4.005341  0  -0.03984  0  -0.077242  -0.093186  0  3.970022  0
C  C43  1  0.15866178  0.37489655  0.04853154  1  0  -0.06703  0  3.732662  0  0  -0.092074  0  3.984443  0  0  -0.092573  0  4.005508  0  -0.07768  0  -0.077115  -0.091575  0  3.970143  0
C  C44  1  0.41775831  0.87484253  0.54846865  1  0  -0.068396  0  3.732107  0  0  -0.09373  0  3.984289  0  0  -0.094261  0  4.005323  0  -0.039816  0  -0.077227  -0.093237  0  3.970008  0
C  C45  1  0.84133649  0.62510425  0.95146813  1  0  -0.067069  0  3.732595  0  0  -0.09209  0  3.984373  0  0  -0.092591  0  4.005441  0  -0.07773  0  -0.077056  -0.091591  0  3.970074  0
C  C46  1  0.58896193  0.05090827  0.38990863  1  0  -0.068071  0  3.730534  0  0  -0.089955  0  3.97744  0  0  -0.091915  0  3.99859  0  -0.017167  0  -0.079151  -0.088568  0  3.9631  0
C  C47  1  0.02954210  0.44911784  0.11010934  1  0  -0.068918  0  3.729418  0  0  -0.090791  0  3.975877  0  0  -0.092844  0  3.996956  0  0.043971  0  -0.07905  -0.089334  0  3.961551  0
C  C48  1  0.41104045  0.94908876  0.61009080  1  0  -0.068016  0  3.730663  0  0  -0.08992  0  3.97758  0  0  -0.091879  0  3.998732  0  -0.017179  0  -0.079185  -0.088547  0  3.963233  0
C  C49  1  0.97045617  0.55088297  0.88989033  1  0  -0.068935  0  3.729358  0  0  -0.090813  0  3.975824  0  0  -0.092871  0  3.996907  0  0.043983  0  -0.07912  -0.089355  0  3.961498  0
C  C50  1  0.54391397  0.07745960  0.31077322  1  0  -0.05707  0  3.744325  0  0  -0.035666  0  3.975353  0  0  -0.042098  0  3.998213  0  -0.054303  0  -0.012885  -0.031375  0  3.95987  0
C  C51  1  0.93194083  0.42250149  0.18915829  1  0  -0.057301  0  3.741615  0  0  -0.035408  0  3.972495  0  0  -0.041784  0  3.995273  0  -0.036114  0  -0.013311  -0.031168  0  3.957082  0
C  C52  1  0.45608733  0.92254120  0.68922635  1  0  -0.057132  0  3.744355  0  0  -0.035693  0  3.975358  0  0  -0.042127  0  3.998219  0  -0.054229  0  -0.012833  -0.031402  0  3.959878  0
C  C53  1  0.06805904  0.57750007  0.81084162  1  0  -0.057297  0  3.741581  0  0  -0.035435  0  3.972496  0  0  -0.04181  0  3.995273  0  -0.036291  0  -0.013266  -0.031195  0  3.957083  0
C  C54  1  0.49109125  0.17937138  0.29455971  1  0  -0.072193  0  3.73976  0  0  -0.09503  0  3.9885  0  0  -0.096927  0  4.009241  0  0.008463  0  -0.083984  -0.093686  0  3.974383  0
C  C55  1  0.96486137  0.32057762  0.20542885  1  0  -0.072793  0  3.73875  0  0  -0.095442  0  3.98752  0  0  -0.097386  0  4.008218  0  -0.035841  0  -0.083845  -0.094058  0  3.973488  0
C  C56  1  0.50891029  0.82062716  0.70544124  1  0  -0.072265  0  3.739656  0  0  -0.095127  0  3.988389  0  0  -0.097024  0  4.00913  0  0.008322  0  -0.084029  -0.093782  0  3.974272  0
C  C57  1  0.03513648  0.67942394  0.79457090  1  0  -0.072772  0  3.738808  0  0  -0.095436  0  3.987588  0  0  -0.097385  0  4.008283  0  -0.035639  0  -0.083846  -0.094052  0  3.973555  0
C  C58  1  0.48547778  0.25379525  0.35541150  1  0  -0.063371  0  3.712264  0  0  -0.087683  0  3.957943  0  0  -0.087817  0  3.977933  0  -0.060004  0  -0.081024  -0.087359  0  3.944392  0
C  C59  1  0.09449913  0.24618323  0.14456534  1  0  -0.06294  0  3.711771  0  0  -0.08693  0  3.957599  0  0  -0.08707  0  3.977555  0  -0.085696  0  -0.080915  -0.086686  0  3.944034  0
C  C60  1  0.51452192  0.74620480  0.64458919  1  0  -0.06324  0  3.712146  0  0  -0.087565  0  3.957848  0  0  -0.087699  0  3.977838  0  -0.060022  0  -0.080992  -0.087242  0  3.944297  0
C  C61  1  0.90549871  0.75381833  0.85543374  1  0  -0.062968  0  3.711741  0  0  -0.086917  0  3.957539  0  0  -0.087059  0  3.977496  0  -0.085794  0  -0.080911  -0.086668  0  3.943971  0
C  C62  1  0.52930478  0.30615259  0.49807606  1  0  0.684358  0  3.872732  0  0  0.632515  0  4.159312  0  0  0.669339  0  4.150134  0  1.538493  0  0.221708  0.607438  0  4.164632  0
C  C63  1  0.33339054  0.19390224  0.00200604  1  0  0.68485  0  3.871885  0  0  0.633779  0  4.157324  0  0  0.670619  0  4.14814  0  1.553052  0  0.222599  0.608691  0  4.162643  0
C  C64  1  0.47069492  0.69384746  0.50192327  1  0  0.684348  0  3.872772  0  0  0.632489  0  4.159376  0  0  0.669312  0  4.150201  0  1.538494  0  0.221688  0.607411  0  4.164695  0
C  C65  1  0.66661017  0.80609781  0.99799507  1  0  0.684859  0  3.871865  0  0  0.633813  0  4.157283  0  0  0.670651  0  4.148102  0  1.553326  0  0.222648  0.608725  0  4.162602  0
C  C66  1  0.54586847  0.99764539  0.24677442  1  0  0.689942  0  3.880677  0  0  0.639072  0  4.174537  0  0  0.67452  0  4.164677  0  1.568161  0  0.224816  0.61494  0  4.180429  0
C  C67  1  0.79017351  0.50234145  0.25308371  1  0  0.692326  0  3.879961  0  0  0.640445  0  4.174661  0  0  0.675896  0  4.164708  0  1.571472  0  0.225722  0.616313  0  4.180625  0
C  C68  1  0.45413730  0.00235466  0.75322538  1  0  0.689999  0  3.880746  0  0  0.639092  0  4.174643  0  0  0.674542  0  4.164783  0  1.568207  0  0.224814  0.614961  0  4.180532  0
C  C69  1  0.20982779  0.49765935  0.74691790  1  0  0.692322  0  3.880161  0  0  0.640469  0  4.174822  0  0  0.675919  0  4.16487  0  1.571676  0  0.225719  0.616337  0  4.180787  0
C  C70  1  0.55019899  0.46323521  0.79577010  1  0  0.664412  0  3.906797  0  0  0.616728  0  4.191469  0  0  0.65205  0  4.184706  0  1.520821  0  0.211182  0.592743  0  4.195078  0
C  C71  1  0.80900688  0.03664803  0.70411060  1  0  0.665005  0  3.906069  0  0  0.61677  0  4.191408  0  0  0.65209  0  4.184674  0  1.54355  0  0.212027  0.59279  0  4.19499  0
C  C72  1  0.44980071  0.53676484  0.20422991  1  0  0.664493  0  3.906656  0  0  0.616851  0  4.19126  0  0  0.652171  0  4.184498  0  1.521011  0  0.21126  0.592867  0  4.194868  0
C  C73  1  0.19099365  0.96335051  0.29588925  1  0  0.665055  0  3.906012  0  0  0.61682  0  4.191356  0  0  0.652136  0  4.184626  0  1.543523  0  0.21204  0.59284  0  4.194939  0
C  C74  1  0.52750477  0.48129617  0.90066760  1  0  -0.046976  0  3.739253  0  0  -0.023294  0  3.966873  0  0  -0.030439  0  3.989896  0  -0.017198  0  -0.009198  -0.018587  0  3.951293  0
C  C75  1  0.90933490  0.01863469  0.59926851  1  0  -0.047958  0  3.739563  0  0  -0.023738  0  3.966992  0  0  -0.030886  0  3.990029  0  -0.001181  0  -0.009315  -0.019033  0  3.951403  0
C  C76  1  0.47249451  0.51870464  0.09933181  1  0  -0.047027  0  3.739276  0  0  -0.023351  0  3.966883  0  0  -0.030493  0  3.989902  0  -0.017174  0  -0.009222  -0.018644  0  3.951303  0
C  C77  1  0.09066462  0.98136384  0.40073092  1  0  -0.047984  0  3.739511  0  0  -0.023779  0  3.966958  0  0  -0.030923  0  3.99  0  -0.00118  0  -0.00933  -0.019073  0  3.951369  0
C  C78  1  0.50638152  0.40865398  0.96466650  1  0  -0.081204  0  3.737992  0  0  -0.104253  0  3.988871  0  0  -0.105839  0  4.009855  0  -0.056191  0  -0.082192  -0.103051  0  3.974608  0
C  C79  1  0.87964847  0.09133508  0.53528352  1  0  -0.080463  0  3.738029  0  0  -0.103906  0  3.989143  0  0  -0.105476  0  4.01013  0  -0.14759  0  -0.082317  -0.102725  0  3.974887  0
C  C80  1  0.49361448  0.59134909  0.03533367  1  0  -0.081188  0  3.737998  0  0  -0.104255  0  3.98889  0  0  -0.105832  0  4.009866  0  -0.056456  0  -0.082179  -0.103052  0  3.974626  0
C  C81  1  0.12035003  0.90866345  0.46471549  1  0  -0.080465  0  3.738119  0  0  -0.103909  0  3.989227  0  0  -0.105484  0  4.010216  0  -0.147639  0  -0.082323  -0.102728  0  3.974971  0
C  C82  1  0.52117872  0.57275749  0.93675717  1  0  -0.07166  0  3.738178  0  0  -0.095313  0  3.986692  0  0  -0.096692  0  4.008049  0  -0.014312  0  -0.082276  -0.094271  0  3.97213  0
C  C83  1  0.03067205  0.92720970  0.56324003  1  0  -0.071252  0  3.738693  0  0  -0.094988  0  3.987229  0  0  -0.096359  0  4.008613  0  0.045107  0  -0.081893  -0.093932  0  3.972648  0
C  C84  1  0.47881955  0.42724332  0.06324250  1  0  -0.071716  0  3.738185  0  0  -0.095363  0  3.986684  0  0  -0.096743  0  4.008044  0  -0.014251  0  -0.082305  -0.094322  0  3.972125  0
C  C85  1  0.96932646  0.07278883  0.43675831  1  0  -0.071226  0  3.738542  0  0  -0.094945  0  3.987064  0  0  -0.096333  0  4.008444  0  0.045174  0  -0.081872  -0.09389  0  3.972483  0
O  O86  1  0.50176330  0.39637120  0.47551098  1  0  -0.670707  0  2.095083  0  0  -0.594184  0  2.355586  0  0  -0.627818  0  2.343457  0  -1.175678  0  -0.323326  -0.570473  0  2.362989  0
O  O87  1  0.37365227  0.10368439  0.02455401  1  0  -0.670775  0  2.095077  0  0  -0.594379  0  2.354961  0  0  -0.628033  0  2.342865  0  -1.179851  0  -0.323406  -0.570656  0  2.362366  0
O  O88  1  0.49823538  0.60362885  0.52448929  1  0  -0.670735  0  2.095125  0  0  -0.594195  0  2.355626  0  0  -0.627825  0  2.343493  0  -1.17568  0  -0.323336  -0.570482  0  2.363026  0
O  O89  1  0.62634684  0.89631491  0.97544686  1  0  -0.67078  0  2.09508  0  0  -0.594394  0  2.354964  0  0  -0.628048  0  2.342869  0  -1.180205  0  -0.32339  -0.57067  0  2.362367  0
O  O90  1  0.77497244  0.41608382  0.48955424  1  0  -0.813991  0  1.811923  0  0  -0.756075  0  1.981327  0  0  -0.777514  0  1.952082  0  -1.229565  0  -0.573487  -0.74101  0  2.001827  0
O  O91  1  0.68087288  0.08388181  0.01056440  1  0  -0.813059  0  1.811973  0  0  -0.755258  0  1.980695  0  0  -0.776705  0  1.951566  0  -1.225865  0  -0.572834  -0.740183  0  2.001106  0
O  O92  1  0.22502625  0.58391623  0.51044603  1  0  -0.813969  0  1.811948  0  0  -0.75605  0  1.981354  0  0  -0.777489  0  1.952109  0  -1.229565  0  -0.573471  -0.740984  0  2.001854  0
O  O93  1  0.31912496  0.91611975  0.98943467  1  0  -0.812938  0  1.812043  0  0  -0.755201  0  1.980688  0  0  -0.776649  0  1.951561  0  -1.22587  0  -0.572822  -0.740127  0  2.001096  0
O  O94  1  0.55812863  0.28223031  0.57515875  1  0  -0.748034  0  2.033735  0  0  -0.679748  0  2.289362  0  0  -0.709095  0  2.27475  0  -1.217101  0  -0.380768  -0.658938  0  2.298653  0
O  O95  1  0.41540342  0.21787592  0.92501917  1  0  -0.748973  0  2.033629  0  0  -0.680961  0  2.289376  0  0  -0.710331  0  2.274717  0  -1.226316  0  -0.381659  -0.66013  0  2.29869  0
O  O96  1  0.44186904  0.71776974  0.42484178  1  0  -0.748012  0  2.033771  0  0  -0.679726  0  2.289417  0  0  -0.709073  0  2.274806  0  -1.217127  0  -0.380749  -0.658916  0  2.298707  0
O  O97  1  0.58460175  0.78212337  0.07498352  1  0  -0.748987  0  2.033609  0  0  -0.680995  0  2.289374  0  0  -0.710359  0  2.274711  0  -1.226338  0  -0.381716  -0.660163  0  2.298688  0
O  O98  1  0.51645206  0.02583549  0.17004465  1  0  -0.693609  0  2.072553  0  0  -0.620494  0  2.318618  0  0  -0.651357  0  2.305295  0  -1.180878  0  -0.325982  -0.59874  0  2.327012  0
O  O99  1  0.71231068  0.47425789  0.32988457  1  0  -0.695909  0  2.073343  0  0  -0.621888  0  2.319472  0  0  -0.652749  0  2.306091  0  -1.196448  0  -0.326894  -0.600148  0  2.32792  0
O  O100  1  0.48354948  0.97416305  0.82995562  1  0  -0.693598  0  2.072524  0  0  -0.620469  0  2.318589  0  0  -0.651332  0  2.305268  0  -1.180906  0  -0.325982  -0.598714  0  2.326982  0
O  O101  1  0.28769038  0.52574518  0.67011634  1  0  -0.695905  0  2.073264  0  0  -0.621892  0  2.319384  0  0  -0.652754  0  2.306006  0  -1.196458  0  -0.32687  -0.600152  0  2.327833  0
O  O102  1  0.57207263  0.90930446  0.27173768  1  0  -0.707818  0  1.943732  0  0  -0.652268  0  2.176305  0  0  -0.677777  0  2.163647  0  -1.218445  0  -0.386083  -0.634312  0  2.1845  0
O  O103  1  0.75300876  0.59063627  0.22802433  1  0  -0.708544  0  1.944554  0  0  -0.65273  0  2.17761  0  0  -0.678247  0  2.164946  0  -1.224434  0  -0.386225  -0.634778  0  2.185822  0
O  O104  1  0.42793087  0.09069785  0.72826398  1  0  -0.707844  0  1.943836  0  0  -0.652294  0  2.176441  0  0  -0.677802  0  2.16378  0  -1.218424  0  -0.386082  -0.634337  0  2.184638  0
O  O105  1  0.24699230  0.40936680  0.77197522  1  0  -0.708503  0  1.944749  0  0  -0.652693  0  2.177785  0  0  -0.67821  0  2.165127  0  -1.224543  0  -0.386207  -0.63474  0  2.185996  0
O  O106  1  0.55651338  0.53370113  0.74105922  1  0  -0.627189  0  1.950458  0  0  -0.564677  0  2.18045  0  0  -0.595081  0  2.169996  0  -1.136934  0  -0.316759  -0.543336  0  2.186822  0
O  O107  1  0.83109787  0.96624943  0.75888416  1  0  -0.62712  0  1.949092  0  0  -0.564446  0  2.17923  0  0  -0.594867  0  2.16881  0  -1.143246  0  -0.316951  -0.543106  0  2.185589  0
O  O108  1  0.44348757  0.46629665  0.25893920  1  0  -0.627215  0  1.950338  0  0  -0.564725  0  2.180314  0  0  -0.59513  0  2.16986  0  -1.136956  0  -0.316784  -0.543384  0  2.186686  0
O  O109  1  0.16890730  0.03374987  0.24111447  1  0  -0.627144  0  1.94903  0  0  -0.564461  0  2.179168  0  0  -0.594883  0  2.168752  0  -1.143185  0  -0.316972  -0.543122  0  2.185528  0
O  O110  1  0.55789816  0.37860127  0.76399922  1  0  -0.742105  0  2.010939  0  0  -0.673612  0  2.256445  0  0  -0.703606  0  2.24338  0  -1.202682  0  -0.391092  -0.652373  0  2.264633  0
O  O111  1  0.70024473  0.12125551  0.73580515  1  0  -0.742563  0  2.011426  0  0  -0.673713  0  2.257136  0  0  -0.703734  0  2.244066  0  -1.219833  0  -0.391955  -0.652454  0  2.265323  0
O  O112  1  0.44210196  0.62139802  0.23599935  1  0  -0.742097  0  2.01091  0  0  -0.673619  0  2.256392  0  0  -0.703611  0  2.243328  0  -1.20284  0  -0.391111  -0.652379  0  2.264578  0
O  O113  1  0.29975336  0.87874378  0.26419462  1  0  -0.7426  0  2.01147  0  0  -0.673749  0  2.257179  0  0  -0.703769  0  2.244111  0  -1.219856  0  -0.391949  -0.652492  0  2.265367  0
