# generated using pymatgen
data_CoH11C15N2O5
_symmetry_space_group_name_H-M   'P 1'
_cell_length_a   7.59331919
_cell_length_b   8.91457946
_cell_length_c   10.61105411
_cell_angle_alpha   79.70835330
_cell_angle_beta   72.29455819
_cell_angle_gamma   76.75452633
_symmetry_Int_Tables_number   1
_chemical_formula_structural   CoH11C15N2O5
_chemical_formula_sum   'Co2 H22 C30 N4 O10'
_cell_volume   661.43418661
_cell_formula_units_Z   2
loop_
 _symmetry_equiv_pos_site_id
 _symmetry_equiv_pos_as_xyz
  1  'x, y, z'
loop_
 _atom_site_type_symbol
 _atom_site_label
 _atom_site_symmetry_multiplicity
 _atom_site_fract_x
 _atom_site_fract_y
 _atom_site_fract_z
 _atom_site_occupancy
 _atom_site_hle17_ddec_charge
 _atom_site_hle17_ddec_spin_density
 _atom_site_hle17_ddec_sum_bond_order
 _atom_site_hle17_magmom
 _atom_site_hse06_10hf_ddec_charge
 _atom_site_hse06_10hf_ddec_spin_density
 _atom_site_hse06_10hf_ddec_sum_bond_order
 _atom_site_hse06_10hf_magmom
 _atom_site_hse06_ddec_charge
 _atom_site_hse06_ddec_spin_density
 _atom_site_hse06_ddec_sum_bond_order
 _atom_site_hse06_magmom
 _atom_site_pbe_cm5_charge
 _atom_site_pbe_ddec_charge
 _atom_site_pbe_ddec_spin_density
 _atom_site_pbe_ddec_sum_bond_order
 _atom_site_pbe_magmom
Co  Co0  1  0.17797040  0.13607863  0.27501666  1  0.99762  -2.951038  1.95614  -2.582  0.946645  -2.891145  2.379263  -2.639  1.022142  -2.927962  2.304866  -2.711  0.678232  0.882298  -2.856957  2.442692  -2.568
Co  Co1  1  0.82202356  0.86392126  0.72498078  1  0.997684  2.951037  1.956055  2.582  0.946672  2.891144  2.379265  2.639  1.022184  2.927965  2.304867  2.711  0.678208  0.882312  2.856957  2.442685  2.568
H  H2  1  0.22055537  0.91274230  0.47931109  1  0.435815  -0.000298  0.869397  -0.002  0.40439  -0.000575  0.934404  -0.002  0.416408  -0.000466  0.917396  -0.002  0.293723  0.395623  -0.000651  0.946627  -0.002
H  H3  1  0.77944115  0.08725877  0.52067998  1  0.435729  0.000299  0.869515  0.002  0.404361  0.000576  0.934443  0.002  0.416381  0.000466  0.917433  0.002  0.293686  0.395593  0.000651  0.946664  0.002
H  H4  1  0.39803489  0.00572792  0.41303293  1  0.420886  -1.9e-05  0.87305  0.001  0.39334  -0.000441  0.938772  0.0  0.40357  -0.000249  0.924052  0.0  0.298373  0.386363  -0.000641  0.948629  0.0
H  H5  1  0.60195030  0.99427431  0.58696132  1  0.42096  2e-05  0.872996  -0.001  0.393416  0.000442  0.93868  0.0  0.403645  0.000249  0.923962  0.0  0.298415  0.386443  0.000642  0.948535  0.0
H  H6  1  0.82185163  0.51034414  0.50239414  1  0.108805  9.8e-05  0.939982  0.0  0.119668  -1.5e-05  0.99982  0.0  0.123698  -2.8e-05  0.99694  0.0  0.108156  0.116885  -3e-06  1.001875  0.0
H  H7  1  0.17814978  0.48965343  0.49760112  1  0.10876  -0.0001  0.940084  0.0  0.119655  1.5e-05  0.999884  0.0  0.123685  2.7e-05  0.997006  0.0  0.108158  0.116873  3e-06  1.001943  0.0
H  H8  1  0.00128067  0.83495056  0.37644932  1  0.090892  -0.000888  0.926962  -0.002  0.098575  -0.000626  0.987912  -0.001  0.10178  -0.000481  0.985039  -0.001  0.120336  0.095625  -0.000765  0.990857  -0.001
H  H9  1  0.99870889  0.16505627  0.62355275  1  0.090898  0.000884  0.926966  0.002  0.098593  0.000626  0.987897  0.001  0.101798  0.000481  0.985024  0.001  0.120346  0.095643  0.000765  0.99084  0.001
H  H10  1  0.98070725  0.60874508  0.27197034  1  0.109819  -6.7e-05  0.962323  0.0  0.11727  -0.000211  1.026191  0.0  0.120257  -0.000127  1.025698  0.0  0.105862  0.11473  -0.000357  1.027348  0.0
H  H11  1  0.01928638  0.39125594  0.72803265  1  0.109822  6.7e-05  0.962336  0.0  0.117288  0.000211  1.026188  0.0  0.120284  0.000127  1.025684  0.0  0.105865  0.114746  0.000357  1.027345  0.0
H  H12  1  0.09644744  0.61548685  0.02355480  1  0.109505  -0.000286  0.933978  -0.001  0.122125  0.000105  0.98949  0.0  0.12521  5.2e-05  0.987043  0.0  0.11193  0.118938  9.4e-05  0.992281  0.0
H  H13  1  0.90354922  0.38451301  0.97644773  1  0.109532  0.000285  0.933925  0.001  0.122127  -0.000105  0.98946  0.0  0.125211  -5.2e-05  0.987013  0.0  0.111969  0.118943  -9.4e-05  0.992248  0.0
H  H14  1  0.24503119  0.83529045  0.88990224  1  0.121902  -0.000212  0.949249  0.0  0.129782  -0.00039  1.011625  0.0  0.133042  -0.00029  1.010999  0.0  0.111035  0.126963  -0.000507  1.012644  -0.001
H  H15  1  0.75497289  0.16470708  0.11010094  1  0.121869  0.000209  0.949298  0.0  0.129771  0.00039  1.011658  0.0  0.133017  0.000291  1.011049  0.0  0.111031  0.126955  0.000507  1.012673  0.001
H  H16  1  0.36419472  0.03186352  0.79256735  1  0.121401  -0.000185  0.970744  0.0  0.128403  -4.4e-05  1.034229  0.0  0.132573  -1.1e-05  1.031651  0.0  0.110701  0.125195  -9.3e-05  1.036477  0.0
H  H17  1  0.63580646  0.96814100  0.20742977  1  0.121415  0.000184  0.970693  0.0  0.128386  4.4e-05  1.03422  0.0  0.132557  1.1e-05  1.031641  0.0  0.110706  0.125178  9.3e-05  1.036473  0.0
H  H18  1  0.48208897  0.27725355  0.69664916  1  0.095167  -7e-05  0.966547  0.0  0.104272  3.3e-05  1.029521  0.0  0.106042  2e-06  1.029511  0.0  0.105151  0.102744  6e-05  1.029936  0.0
H  H19  1  0.51791003  0.72275445  0.30334886  1  0.095193  6.8e-05  0.966538  0.0  0.104245  -3.3e-05  1.029576  0.0  0.106016  -2e-06  1.029564  0.0  0.105126  0.102714  -6e-05  1.030006  0.0
H  H20  1  0.45935019  0.47055710  0.84961528  1  0.103145  -0.000371  0.95276  -0.001  0.113135  -0.00032  1.012904  0.0  0.115466  -0.000234  1.01301  0.0  0.107302  0.110918  -0.000417  1.01411  -0.001
H  H21  1  0.54064652  0.52944855  0.15038827  1  0.103149  0.000371  0.952837  0.001  0.113115  0.00032  1.012984  0.0  0.115445  0.000234  1.013092  0.0  0.107281  0.1109  0.000417  1.014195  0.001
H  H22  1  0.33602435  0.39839199  0.09719512  1  0.079569  -0.00045  0.957183  -0.001  0.086261  -0.000498  1.024993  -0.001  0.088472  -0.000335  1.022966  -0.001  0.116899  0.084741  -0.000723  1.026087  -0.002
H  H23  1  0.66399045  0.60160090  0.90280740  1  0.079458  0.000449  0.957253  0.001  0.08623  0.000498  1.02499  0.001  0.088445  0.000335  1.022955  0.001  0.116908  0.084706  0.000723  1.026083  0.002
C  C24  1  0.68075345  0.50396520  0.50096455  1  -0.094716  -0.004044  3.705434  -0.005  -0.127097  -0.001322  3.958866  -0.002  -0.127622  -0.001093  3.97608  -0.001  -0.080422  -0.126438  -0.001672  3.946975  -0.002
C  C25  1  0.31925111  0.49603704  0.49902464  1  -0.094666  0.004045  3.705358  0.005  -0.127132  0.001321  3.958721  0.002  -0.127643  0.001093  3.975958  0.001  -0.080465  -0.126494  0.001672  3.94682  0.002
C  C26  1  0.65510453  0.39756537  0.42910674  1  -0.047943  0.002256  3.71373  0.003  -0.034714  0.000661  3.953523  0.001  -0.036184  0.00078  3.969906  0.001  -0.004032  -0.034219  0.000517  3.942688  0.0
C  C27  1  0.34490471  0.60243455  0.57088086  1  -0.048089  -0.002255  3.714046  -0.003  -0.034695  -0.00066  3.953649  -0.001  -0.036217  -0.000779  3.970103  -0.001  -0.004005  -0.034147  -0.000517  3.942744  0.0
C  C28  1  0.47094202  0.39287453  0.42923256  1  -0.064089  -0.006357  3.726982  -0.009  -0.053518  -0.002656  3.966041  -0.004  -0.057865  -0.002029  3.984473  -0.003  -0.0121  -0.050366  -0.003531  3.953637  -0.005
C  C29  1  0.52906417  0.60712654  0.57075740  1  -0.063936  0.006359  3.727203  0.009  -0.053458  0.002657  3.966248  0.004  -0.057779  0.002029  3.984672  0.003  -0.012111  -0.050321  0.003531  3.953818  0.005
C  C30  1  0.43201364  0.27077098  0.36586805  1  0.631344  0.001964  3.926386  0.004  0.587979  -0.001089  4.220328  -0.001  0.622457  -0.000865  4.213495  -0.001  0.204273  0.563723  -0.001142  4.224315  0.0
C  C31  1  0.56798383  0.72922540  0.63413293  1  0.631308  -0.001965  3.9265  -0.004  0.587989  0.001088  4.220383  0.001  0.622465  0.000863  4.213541  0.001  0.204327  0.563737  0.001142  4.224361  0.0
C  C32  1  0.83007441  0.30573440  0.34527298  1  0.653706  0.00398  3.892616  0.007  0.600281  0.000465  4.205422  0.002  0.63596  0.000388  4.19812  0.002  0.211847  0.575448  0.000258  4.207397  0.003
C  C33  1  0.16994129  0.69426084  0.65472429  1  0.65366  -0.00398  3.892506  -0.007  0.600205  -0.000464  4.20528  -0.002  0.635897  -0.00039  4.197977  -0.002  0.21188  0.575359  -0.000258  4.207248  -0.003
C  C34  1  0.05424611  0.83006641  0.26916776  1  0.145157  0.012824  3.664473  0.017  0.120837  0.004109  3.915197  0.006  0.129343  0.003699  3.930538  0.006  0.052205  0.113994  0.004749  3.907908  0.007
C  C35  1  0.94574483  0.16994042  0.73083402  1  0.145161  -0.012826  3.664535  -0.017  0.120835  -0.004109  3.915262  -0.006  0.129343  -0.0037  3.930604  -0.006  0.052213  0.113985  -0.004749  3.907984  -0.007
C  C36  1  0.04347560  0.70516957  0.21130071  1  -0.113457  -0.011028  3.714422  -0.015  -0.125051  -0.003623  3.963177  -0.005  -0.131638  -0.003539  3.982986  -0.005  -0.080452  -0.123367  -0.003646  3.953315  -0.005
C  C37  1  0.95651862  0.29483494  0.78870166  1  -0.113444  0.011036  3.714407  0.015  -0.125051  0.003622  3.963128  0.005  -0.131646  0.003538  3.98293  0.005  -0.080396  -0.123364  0.003645  3.953274  0.005
C  C38  1  0.11008807  0.70759367  0.07303641  1  -0.004463  0.014377  3.709604  0.018  -0.024621  0.005474  3.961461  0.006  -0.019281  0.004149  3.977177  0.005  -0.068029  -0.027982  0.007291  3.951225  0.009
C  C39  1  0.88990946  0.29240852  0.92696465  1  -0.004433  -0.014382  3.709538  -0.018  -0.024567  -0.005474  3.961416  -0.006  -0.019228  -0.004148  3.977132  -0.005  -0.068104  -0.027921  -0.007292  3.951165  -0.009
C  C40  1  0.19152034  0.83142032  0.99787489  1  -0.136241  -0.009835  3.681993  -0.013  -0.156998  -0.002964  3.933585  -0.004  -0.163964  -0.002856  3.953279  -0.004  -0.078933  -0.150156  -0.003296  3.919196  -0.005
C  C41  1  0.80847882  0.16858071  0.00212693  1  -0.136282  0.009845  3.682018  0.013  -0.15706  0.002964  3.933635  0.004  -0.164019  0.002854  3.953339  0.004  -0.078943  -0.150224  0.003296  3.919252  0.005
C  C42  1  0.20059579  0.95152033  0.06330477  1  0.164406  0.010666  3.776521  0.015  0.164074  0.003442  4.018634  0.005  0.170993  0.002949  4.03908  0.005  0.11601  0.158959  0.004399  4.004665  0.006
C  C43  1  0.79939985  0.04848419  0.93669446  1  0.164381  -0.010674  3.776547  -0.015  0.164049  -0.003442  4.018702  -0.005  0.170968  -0.002948  4.039144  -0.005  0.116012  0.158944  -0.0044  4.004723  -0.006
C  C44  1  0.28359909  0.08792544  0.99495255  1  0.171872  0.001908  3.773949  0.002  0.168619  -0.000685  4.018141  -0.001  0.17667  -0.001049  4.038228  -0.002  0.117152  0.162732  -0.000335  4.004699  -0.001
C  C45  1  0.71640283  0.91207558  0.00504964  1  0.171913  -0.001903  3.773932  -0.002  0.168627  0.000685  4.018185  0.001  0.176682  0.001048  4.038271  0.002  0.117135  0.162737  0.000336  4.004735  0.001
C  C46  1  0.35765094  0.11630810  0.85723803  1  -0.132632  -0.001934  3.669882  -0.003  -0.153745  -0.00017  3.921265  0.0  -0.160857  0.000589  3.939399  0.001  -0.076125  -0.149008  -0.000734  3.910473  -0.001
C  C47  1  0.64234772  0.88369526  0.14276168  1  -0.132658  0.001927  3.669839  0.003  -0.153747  0.00017  3.921266  0.0  -0.16086  -0.000588  3.939401  -0.001  -0.076162  -0.149012  0.000733  3.910472  0.001
C  C48  1  0.42298275  0.25420630  0.80372235  1  0.024003  0.002688  3.682406  0.004  0.003096  -0.00053  3.932018  0.0  0.009105  -0.001384  3.948255  -0.002  -0.06152  -0.001907  0.000474  3.922643  0.001
C  C49  1  0.57701725  0.74579703  0.19628085  1  0.023989  -0.002681  3.682365  -0.004  0.003114  0.00053  3.931984  0.0  0.009123  0.001384  3.948221  0.002  -0.061486  -0.001892  -0.000473  3.922609  -0.001
C  C50  1  0.41299377  0.36044806  0.88859266  1  -0.111176  -0.002998  3.720979  -0.005  -0.124376  -0.000838  3.974065  -0.002  -0.131074  -5.8e-05  3.994198  0.0  -0.080335  -0.120867  -0.001187  3.962639  -0.002
C  C51  1  0.58700787  0.63955411  0.11141130  1  -0.111234  0.002994  3.721103  0.005  -0.124404  0.000838  3.974202  0.002  -0.131103  5.8e-05  3.994337  0.0  -0.080328  -0.120888  0.001186  3.962767  0.002
C  C52  1  0.34405557  0.32240152  0.02505099  1  0.134891  0.002211  3.701155  0.003  0.104533  -0.002044  3.960008  -0.002  0.113666  -0.002165  3.976746  -0.002  0.050162  0.098288  -0.001915  3.948411  -0.002
C  C53  1  0.65595404  0.67759602  0.97495101  1  0.13509  -0.002206  3.701163  -0.003  0.104667  0.002044  3.959999  0.002  0.113801  0.002164  3.976738  0.002  0.050173  0.098421  0.001915  3.948392  0.002
N  N54  1  0.12909453  0.95167959  0.19693137  1  -0.345489  -0.044669  3.288063  -0.079  -0.302786  -0.031036  3.568628  -0.054  -0.324752  -0.026392  3.582521  -0.046  -0.319987  -0.288113  -0.034593  3.56079  -0.059
N  N55  1  0.87089838  0.04832493  0.80306562  1  -0.345492  0.044671  3.288149  0.079  -0.302797  0.031032  3.568729  0.054  -0.324764  0.02639  3.582625  0.046  -0.320005  -0.288124  0.034589  3.560893  0.059
N  N56  1  0.28178182  0.18903943  0.07697718  1  -0.360174  -0.044237  3.350122  -0.064  -0.317132  -0.032103  3.647456  -0.041  -0.342942  -0.025245  3.662157  -0.031  -0.335474  -0.296639  -0.038204  3.636287  -0.05
N  N57  1  0.71822201  0.81095928  0.92302399  1  -0.360267  0.044228  3.350018  0.064  -0.317196  0.032099  3.647373  0.041  -0.343011  0.025242  3.662081  0.031  -0.335426  -0.2967  0.038201  3.636186  0.05
O  O58  1  0.29775800  0.96584346  0.39559281  1  -0.837881  -0.037572  2.008613  -0.057  -0.800544  -0.031909  2.241027  -0.046  -0.832168  -0.025456  2.20609  -0.036  -0.575912  -0.773663  -0.038282  2.264781  -0.055
O  O59  1  0.70223332  0.03414943  0.60441281  1  -0.837916  0.037578  2.008666  0.057  -0.800632  0.031915  2.241012  0.046  -0.832258  0.02546  2.206066  0.036  -0.57594  -0.773757  0.03829  2.264739  0.055
O  O60  1  0.91315995  0.17900962  0.40118573  1  -0.632818  -0.042647  2.106199  -0.07  -0.58595  -0.030016  2.372321  -0.046  -0.624859  -0.022744  2.360053  -0.034  -0.310749  -0.553379  -0.037749  2.377735  -0.058
O  O61  1  0.08683103  0.82097862  0.59882158  1  -0.632751  0.042656  2.106051  0.07  -0.585839  0.03002  2.372184  0.046  -0.624752  0.022748  2.359917  0.034  -0.310748  -0.553266  0.037754  2.377595  0.058
O  O62  1  0.90003915  0.36130821  0.22867436  1  -0.583178  -0.013206  1.891539  -0.022  -0.546088  -0.011727  2.122683  -0.019  -0.575073  -0.008292  2.117535  -0.014  -0.294478  -0.520925  -0.016319  2.123617  -0.027
O  O63  1  0.09999552  0.63868814  0.77133004  1  -0.583203  0.013195  1.891402  0.022  -0.546153  0.01172  2.122599  0.019  -0.575136  0.008287  2.117449  0.014  -0.294527  -0.520968  0.016311  2.123487  0.027
O  O64  1  0.55089301  0.14527937  0.35339502  1  -0.617925  0.000273  1.948988  0.0  -0.562694  -0.000564  2.162976  -0.001  -0.585589  -0.000216  2.15329  -0.001  -0.315011  -0.547327  -0.000743  2.16959  -0.001
O  O65  1  0.44909158  0.85471233  0.64661879  1  -0.617917  -0.000273  1.948987  0.0  -0.562719  0.000565  2.162976  0.001  -0.585628  0.000218  2.153321  0.001  -0.315021  -0.547364  0.000743  2.169599  0.001
O  O66  1  0.27598699  0.30106400  0.33406693  1  -0.637686  -0.037223  2.059083  -0.061  -0.597913  -0.02935  2.325824  -0.043  -0.632919  -0.023619  2.314123  -0.034  -0.325767  -0.569755  -0.035109  2.332342  -0.052
O  O67  1  0.72401658  0.69893009  0.66592932  1  -0.637719  0.037226  2.059211  0.061  -0.597954  0.029353  2.325946  0.043  -0.632969  0.02362  2.314244  0.034  -0.325796  -0.569797  0.035113  2.332455  0.052
