# generated using pymatgen
data_Cu3H16C12N4Cl3
_symmetry_space_group_name_H-M   'P 1'
_cell_length_a   7.11382068
_cell_length_b   9.22200658
_cell_length_c   12.77210398
_cell_angle_alpha   83.12370194
_cell_angle_beta   85.06684324
_cell_angle_gamma   81.78957532
_symmetry_Int_Tables_number   1
_chemical_formula_structural   Cu3H16C12N4Cl3
_chemical_formula_sum   'Cu6 H32 C24 N8 Cl6'
_cell_volume   821.31758669
_cell_formula_units_Z   2
loop_
 _symmetry_equiv_pos_site_id
 _symmetry_equiv_pos_as_xyz
  1  'x, y, z'
loop_
 _atom_site_type_symbol
 _atom_site_label
 _atom_site_symmetry_multiplicity
 _atom_site_fract_x
 _atom_site_fract_y
 _atom_site_fract_z
 _atom_site_occupancy
 _atom_site_hle17_bader_spin_density
 _atom_site_hle17_ddec_charge
 _atom_site_hle17_ddec_spin_density
 _atom_site_hle17_ddec_sum_bond_order
 _atom_site_hle17_magmom
 _atom_site_hse06_10hf_bader_spin_density
 _atom_site_hse06_10hf_ddec_charge
 _atom_site_hse06_10hf_ddec_spin_density
 _atom_site_hse06_10hf_ddec_sum_bond_order
 _atom_site_hse06_10hf_magmom
 _atom_site_hse06_bader_spin_density
 _atom_site_hse06_ddec_charge
 _atom_site_hse06_ddec_spin_density
 _atom_site_hse06_ddec_sum_bond_order
 _atom_site_hse06_magmom
 _atom_site_pbe_bader_spin_density
 _atom_site_pbe_cm5_charge
 _atom_site_pbe_ddec_charge
 _atom_site_pbe_ddec_spin_density
 _atom_site_pbe_ddec_sum_bond_order
 _atom_site_pbe_magmom
Cu  Cu0  1  0.75477753  0.56041523  0.23614957  1  0  0.436677  0  1.98254  0  0  0.345524  0  2.438175  0  0  0.334597  0  2.400987  0  0  0.471108  0.355991  0  2.45986  0
Cu  Cu1  1  0.24522015  0.43958506  0.76385168  1  0  0.43671  0  1.982544  0  0  0.345539  0  2.438181  0  0  0.334637  0  2.401008  0  0  0.471131  0.356  0  2.459958  0
Cu  Cu2  1  0.79390835  0.22647979  0.16610497  1  0  0.392138  0  1.984643  0  0  0.294795  0  2.462996  0  0  0.304817  0  2.407597  0  0  0.367142  0.290241  0  2.498566  0
Cu  Cu3  1  0.20609482  0.77352158  0.83389202  1  0  0.392191  0  1.984622  0  0  0.294835  0  2.46299  0  0  0.304866  0  2.407576  0  0  0.367162  0.290287  0  2.498572  0
Cu  Cu4  1  0.83159794  0.22659729  0.36442944  1  0  0.404173  0  1.915553  0  0  0.305315  0  2.392642  0  0  0.31641  0  2.335674  0  0  0.361536  0.301035  0  2.428433  0
Cu  Cu5  1  0.16840097  0.77340410  0.63557087  1  0  0.404161  0  1.915606  0  0  0.305283  0  2.39268  0  0  0.316369  0  2.335707  0  0  0.361536  0.301007  0  2.428469  0
H  H6  1  0.28785608  0.59085813  0.46634135  1  0  0.092268  0  0.960455  0  0  0.098092  0  1.02935  0  0  0.100362  0  1.029054  0  0  0.107822  0.096378  0  1.029833  0
H  H7  1  0.71214302  0.40914216  0.53365905  1  0  0.092249  0  0.960451  0  0  0.098064  0  1.029379  0  0  0.100336  0  1.029082  0  0  0.107816  0.096355  0  1.029858  0
H  H8  1  0.13568926  0.50982504  0.31704846  1  0  0.091267  0  0.974929  0  0  0.09719  0  1.044695  0  0  0.09982  0  1.043487  0  0  0.103987  0.095155  0  1.045802  0
H  H9  1  0.86430963  0.49017635  0.68295341  1  0  0.091237  0  0.974939  0  0  0.09715  0  1.044716  0  0  0.099762  0  1.04353  0  0  0.103963  0.095125  0  1.045815  0
H  H10  1  0.52504213  0.73050598  0.33084641  1  0  0.116296  0  0.968707  0  0  0.129714  0  1.041416  0  0  0.134045  0  1.037546  0  0  0.085607  0.126845  0  1.043684  0
H  H11  1  0.47495498  0.26949762  0.66915535  1  0  0.11627  0  0.968749  0  0  0.129689  0  1.041461  0  0  0.134017  0  1.037594  0  0  0.085584  0.126815  0  1.043742  0
H  H12  1  0.48117788  0.77829653  0.46338498  1  0  0.11528  0  0.981876  0  0  0.133254  0  1.051044  0  0  0.13518  0  1.050087  0  0  0.08661  0.131707  0  1.051939  0
H  H13  1  0.51882063  0.22170708  0.53661751  1  0  0.115313  0  0.981827  0  0  0.133292  0  1.050986  0  0  0.135217  0  1.050031  0  0  0.086631  0.131747  0  1.051879  0
H  H14  1  0.56257252  0.90784502  0.36105637  1  0  0.126026  0  0.949637  0  0  0.151653  0  1.002796  0  0  0.152342  0  1.004219  0  0  0.095353  0.151222  0  1.001672  0
H  H15  1  0.43742918  0.09215637  0.63894616  1  0  0.126094  0  0.949588  0  0  0.151721  0  1.002747  0  0  0.152413  0  1.004167  0  0  0.095367  0.15129  0  1.001623  0
H  H16  1  0.84101543  0.92126770  0.61769702  1  0  0.124988  0  0.987431  0  0  0.141024  0  1.053848  0  0  0.144615  0  1.051378  0  0  0.080514  0.138325  0  1.055687  0
H  H17  1  0.15898243  0.07873149  0.38230510  1  0  0.125005  0  0.987422  0  0  0.141035  0  1.053846  0  0  0.144627  0  1.051376  0  0  0.080512  0.138338  0  1.055683  0
H  H18  1  0.70527326  0.99385769  0.50735291  1  0  0.112111  0  0.964018  0  0  0.128814  0  1.0399  0  0  0.131934  0  1.036614  0  0  0.088052  0.12646  0  1.042247  0
H  H19  1  0.29472603  0.00614149  0.49264836  1  0  0.112082  0  0.964021  0  0  0.128787  0  1.0399  0  0  0.131909  0  1.036609  0  0  0.088027  0.126431  0  1.04225  0
H  H20  1  0.62560177  0.85113168  0.59962007  1  0  0.124431  0  0.96563  0  0  0.144605  0  1.028822  0  0  0.145955  0  1.029359  0  0  0.088555  0.143542  0  1.028646  0
H  H21  1  0.37439488  0.14886641  0.40038141  1  0  0.124465  0  0.965584  0  0  0.144582  0  1.028841  0  0  0.14593  0  1.029378  0  0  0.088551  0.14352  0  1.028663  0
H  H22  1  0.38369935  0.51223220  0.18152842  1  0  0.093213  0  0.977281  0  0  0.098839  0  1.046885  0  0  0.101901  0  1.045228  0  0  0.102565  0.096363  0  1.048667  0
H  H23  1  0.61631240  0.48775261  0.81846102  1  0  0.093239  0  0.9772  0  0  0.098881  0  1.046785  0  0  0.101941  0  1.045131  0  0  0.102605  0.096403  0  1.04857  0
H  H24  1  0.18187551  0.58944714  0.02837778  1  0  0.096685  0  0.972311  0  0  0.102033  0  1.041578  0  0  0.10466  0  1.040965  0  0  0.10453  0.099953  0  1.04231  0
H  H25  1  0.81813905  0.41053766  0.97161232  1  0  0.096675  0  0.972417  0  0  0.10195  0  1.041748  0  0  0.10458  0  1.041133  0  0  0.104525  0.099873  0  1.042479  0
H  H26  1  0.47689853  0.92602589  0.81165983  1  0  0.115417  0  0.976943  0  0  0.129641  0  1.050538  0  0  0.133952  0  1.046427  0  0  0.084762  0.126388  0  1.05334  0
H  H27  1  0.52310100  0.07397992  0.18834320  1  0  0.115416  0  0.976956  0  0  0.129626  0  1.050576  0  0  0.133938  0  1.046466  0  0  0.084766  0.126381  0  1.053371  0
H  H28  1  0.71837737  0.84264414  0.82182454  1  0  0.137466  0  0.955079  0  0  0.156494  0  1.016792  0  0  0.158527  0  1.017232  0  0  0.092706  0.1551  0  1.016314  0
H  H29  1  0.28161982  0.15736717  0.17817654  1  0  0.137407  0  0.955078  0  0  0.156459  0  1.016754  0  0  0.158486  0  1.017215  0  0  0.092688  0.155063  0  1.016278  0
H  H30  1  0.63134947  0.99431109  0.89255410  1  0  0.121312  0  0.939947  0  0  0.145724  0  0.992245  0  0  0.14647  0  0.993824  0  0  0.094933  0.14472  0  0.991913  0
H  H31  1  0.36864356  0.00569142  0.10745108  1  0  0.121372  0  0.939841  0  0  0.145774  0  0.992155  0  0  0.146522  0  0.993733  0  0  0.094947  0.144769  0  0.991822  0
H  H32  1  0.89044172  0.76399004  0.12173170  1  0  0.118282  0  0.965066  0  0  0.131135  0  1.037732  0  0  0.13638  0  1.033224  0  0  0.085846  0.127217  0  1.041091  0
H  H33  1  0.10955276  0.23601245  0.87826950  1  0  0.118264  0  0.965032  0  0  0.131124  0  1.037687  0  0  0.136363  0  1.033184  0  0  0.085859  0.127205  0  1.041057  0
H  H34  1  0.78256669  0.93500070  0.05989588  1  0  0.122192  0  0.944597  0  0  0.141764  0  1.008403  0  0  0.14377  0  1.007802  0  0  0.092852  0.140452  0  1.00853  0
H  H35  1  0.21742375  0.06500069  0.94010559  1  0  0.122158  0  0.944608  0  0  0.141714  0  1.00843  0  0  0.143714  0  1.007836  0  0  0.09279  0.140404  0  1.008558  0
H  H36  1  0.91393117  0.80449334  0.98085701  1  0  0.118894  0  0.977701  0  0  0.134097  0  1.050652  0  0  0.137767  0  1.047501  0  0  0.083903  0.131266  0  1.05296  0
H  H37  1  0.08606433  0.19551136  0.01914473  1  0  0.118819  0  0.977781  0  0  0.134023  0  1.050725  0  0  0.137694  0  1.047571  0  0  0.083877  0.131191  0  1.053034  0
C  C38  1  0.77529490  0.73283459  0.41118983  1  0  0.22882  0  3.650729  0  0  0.234156  0  3.890491  0  0  0.239362  0  3.907925  0  0  0.124411  0.229995  0  3.879088  0
C  C39  1  0.22470560  0.26716570  0.58881207  1  0  0.228748  0  3.650867  0  0  0.234086  0  3.890601  0  0  0.23929  0  3.908041  0  0  0.12438  0.229927  0  3.879217  0
C  C40  1  0.86178704  0.78178834  0.49369978  1  0  0.232438  0  3.63728  0  0  0.238095  0  3.874341  0  0  0.244125  0  3.892392  0  0  0.126518  0.233955  0  3.862401  0
C  C41  1  0.13821043  0.21821306  0.50630294  1  0  0.232507  0  3.637227  0  0  0.238214  0  3.874231  0  0  0.244245  0  3.892284  0  0  0.126594  0.234069  0  3.862315  0
C  C42  1  0.14159065  0.63387878  0.44939049  1  0  0.068435  0  3.695828  0  0  0.036096  0  3.957272  0  0  0.038591  0  3.974583  0  0  0.030404  0.033631  0  3.947293  0
C  C43  1  0.85840865  0.36612040  0.55060921  1  0  0.068488  0  3.695833  0  0  0.036147  0  3.957291  0  0  0.038644  0  3.974597  0  0  0.030429  0.03368  0  3.947327  0
C  C44  1  0.05803506  0.58851534  0.36768950  1  0  0.063228  0  3.701714  0  0  0.026518  0  3.969057  0  0  0.028838  0  3.983934  0  0  0.028109  0.024669  0  3.960462  0
C  C45  1  0.94196591  0.41149046  0.63231033  1  0  0.063216  0  3.701666  0  0  0.02651  0  3.969016  0  0  0.028844  0  3.983907  0  0  0.028105  0.024652  0  3.96043  0
C  C46  1  0.57396606  0.79004848  0.39045126  1  0  -0.362479  0  3.699152  0  0  -0.443202  0  3.92929  0  0  -0.447591  0  3.937037  0  0  -0.245439  -0.43966  0  3.923742  0
C  C47  1  0.42603142  0.20995292  0.60955068  1  0  -0.362535  0  3.699204  0  0  -0.443264  0  3.929321  0  0  -0.447659  0  3.937075  0  0  -0.245449  -0.439726  0  3.923792  0
C  C48  1  0.75284815  0.89306656  0.55882512  1  0  -0.363796  0  3.694453  0  0  -0.442472  0  3.922565  0  0  -0.447352  0  3.930039  0  0  -0.246809  -0.438859  0  3.917783  0
C  C49  1  0.24714952  0.10693374  0.44117691  1  0  -0.363839  0  3.69438  0  0  -0.442492  0  3.92251  0  0  -0.447369  0  3.929974  0  0  -0.246822  -0.438878  0  3.917734  0
C  C50  1  0.53011391  0.78980830  0.95614428  1  0  0.215656  0  3.64622  0  0  0.219856  0  3.889367  0  0  0.225883  0  3.907233  0  0  0.120521  0.214821  0  3.879002  0
C  C51  1  0.46988561  0.21018976  0.04385238  1  0  0.215535  0  3.646231  0  0  0.219868  0  3.889229  0  0  0.225894  0  3.907088  0  0  0.120521  0.214826  0  3.878887  0
C  C52  1  0.64095529  0.74873642  0.04416345  1  0  0.219699  0  3.640773  0  0  0.225641  0  3.881022  0  0  0.230868  0  3.898422  0  0  0.122956  0.222014  0  3.870275  0
C  C53  1  0.35904843  0.25126165  0.95583615  1  0  0.21984  0  3.640784  0  0  0.225686  0  3.881066  0  0  0.23092  0  3.898437  0  0  0.122917  0.222056  0  3.870355  0
C  C54  1  0.42347266  0.59378303  0.11759805  1  0  0.064159  0  3.698541  0  0  0.027859  0  3.964608  0  0  0.031216  0  3.976436  0  0  0.025705  0.025038  0  3.958557  0
C  C55  1  0.57653865  0.40620400  0.88239670  1  0  0.064169  0  3.698406  0  0  0.027856  0  3.964412  0  0  0.031208  0  3.97624  0  0  0.0258  0.025036  0  3.958386  0
C  C56  1  0.31304489  0.63593110  0.03299001  1  0  0.064693  0  3.695834  0  0  0.031169  0  3.958356  0  0  0.035148  0  3.972274  0  0  0.026808  0.027988  0  3.950941  0
C  C57  1  0.68696982  0.36405261  0.96700410  1  0  0.064718  0  3.69606  0  0  0.031252  0  3.958594  0  0  0.035234  0  3.972506  0  0  0.026737  0.028061  0  3.951195  0
C  C58  1  0.59157652  0.89472571  0.86568260  1  0  -0.363968  0  3.693205  0  0  -0.441691  0  3.923699  0  0  -0.446604  0  3.930943  0  0  -0.24172  -0.437505  0  3.918943  0
C  C59  1  0.40842182  0.10527898  0.13431745  1  0  -0.36391  0  3.693133  0  0  -0.441674  0  3.923638  0  0  -0.446591  0  3.930875  0  0  -0.241691  -0.437488  0  3.918878  0
C  C60  1  0.81689304  0.81630608  0.05206436  1  0  -0.356446  0  3.694209  0  0  -0.434142  0  3.928282  0  0  -0.439457  0  3.933985  0  0  -0.243653  -0.430016  0  3.924339  0
C  C61  1  0.18310529  0.18369862  0.94793646  1  0  -0.356327  0  3.694104  0  0  -0.434008  0  3.928239  0  0  -0.439317  0  3.933948  0  0  -0.243548  -0.429881  0  3.924302  0
N  N62  1  0.87394880  0.63605456  0.34855712  1  0  -0.292084  0  3.346086  0  0  -0.230681  0  3.63887  0  0  -0.233652  0  3.64247  0  0  -0.354051  -0.229675  0  3.63672  0
N  N63  1  0.12604869  0.36394684  0.65144404  1  0  -0.292049  0  3.346103  0  0  -0.230635  0  3.638862  0  0  -0.233615  0  3.642477  0  0  -0.354038  -0.22963  0  3.636766  0
N  N64  1  0.04446392  0.73016119  0.51345908  1  0  -0.289258  0  3.330001  0  0  -0.22307  0  3.622514  0  0  -0.230669  0  3.626889  0  0  -0.354599  -0.219025  0  3.620011  0
N  N65  1  0.95553498  0.26984021  0.48654280  1  0  -0.289263  0  3.330083  0  0  -0.223119  0  3.622634  0  0  -0.230724  0  3.62702  0  0  -0.354616  -0.219072  0  3.620137  0
N  N66  1  0.36616902  0.73239282  0.95090969  1  0  -0.294955  0  3.373682  0  0  -0.229439  0  3.673966  0  0  -0.235591  0  3.676361  0  0  -0.366614  -0.226557  0  3.673679  0
N  N67  1  0.63383729  0.26759862  0.04908647  1  0  -0.294929  0  3.373699  0  0  -0.229454  0  3.673927  0  0  -0.235606  0  3.67632  0  0  -0.36661  -0.226554  0  3.673627  0
N  N68  1  0.58916703  0.64779219  0.12389354  1  0  -0.296444  0  3.337766  0  0  -0.232956  0  3.630294  0  0  -0.233916  0  3.631984  0  0  -0.35754  -0.233618  0  3.629438  0
N  N69  1  0.41083747  0.35220147  0.87610407  1  0  -0.296591  0  3.337758  0  0  -0.233058  0  3.630281  0  0  -0.23401  0  3.631965  0  0  -0.357608  -0.233723  0  3.629488  0
Cl  Cl70  1  0.00849559  0.39850960  0.16394688  1  0  -0.543407  0  1.26897  0  0  -0.47367  0  1.617423  0  0  -0.488908  0  1.585659  0  0  -0.289928  -0.462703  0  1.637891  0
Cl  Cl71  1  0.99150512  0.60148958  0.83605276  1  0  -0.543431  0  1.268962  0  0  -0.473691  0  1.617426  0  0  -0.488926  0  1.585648  0  0  -0.289947  -0.46273  0  1.637932  0
Cl  Cl72  1  0.90032904  0.02680975  0.27239759  1  0  -0.504988  0  1.359463  0  0  -0.420206  0  1.697875  0  0  -0.441869  0  1.668486  0  0  -0.290959  -0.405356  0  1.716307  0
Cl  Cl73  1  0.09966844  0.97319164  0.72760435  1  0  -0.505003  0  1.359475  0  0  -0.420209  0  1.697869  0  0  -0.441876  0  1.668478  0  0  -0.290962  -0.405361  0  1.716307  0
Cl  Cl74  1  0.55514907  0.38356109  0.34044570  1  0  -0.548454  0  1.223437  0  0  -0.477556  0  1.564847  0  0  -0.491914  0  1.531654  0  0  -0.292513  -0.467483  0  1.586295  0
Cl  Cl75  1  0.44484682  0.61644140  0.65955465  1  0  -0.548437  0  1.223438  0  0  -0.477555  0  1.564869  0  0  -0.491919  0  1.531681  0  0  -0.292523  -0.467485  0  1.586336  0
