# generated using pymatgen
data_AgH14C10N2O2F
_symmetry_space_group_name_H-M   'P 1'
_cell_length_a   9.46955772
_cell_length_b   10.99919960
_cell_length_c   11.85247883
_cell_angle_alpha   65.71138584
_cell_angle_beta   77.68847128
_cell_angle_gamma   86.39034974
_symmetry_Int_Tables_number   1
_chemical_formula_structural   AgH14C10N2O2F
_chemical_formula_sum   'Ag4 H56 C40 N8 O8 F4'
_cell_volume   1098.94887869
_cell_formula_units_Z   4
loop_
 _symmetry_equiv_pos_site_id
 _symmetry_equiv_pos_as_xyz
  1  'x, y, z'
loop_
 _atom_site_type_symbol
 _atom_site_label
 _atom_site_symmetry_multiplicity
 _atom_site_fract_x
 _atom_site_fract_y
 _atom_site_fract_z
 _atom_site_occupancy
 _atom_site_pbe_bader_spin_density
 _atom_site_pbe_cm5_charge
 _atom_site_pbe_ddec_charge
 _atom_site_pbe_ddec_spin_density
 _atom_site_pbe_ddec_sum_bond_order
 _atom_site_pbe_magmom
Ag  Ag0  1  0.99999877  0.49999869  0.99999863  1  0  0.479475  0.320817  0  2.13451  0
Ag  Ag1  1  0.00000164  0.99999878  0.99999807  1  0  0.474341  0.328584  0  2.042863  0
Ag  Ag2  1  0.94597167  0.29370164  0.91990139  1  0  0.413743  0.501566  0  1.848106  0
Ag  Ag3  1  0.05402624  0.70629497  0.08009501  1  0  0.41374  0.501567  0  1.848094  0
H  H4  1  0.56892828  0.26110180  0.09271709  1  0  0.128426  0.14323  0  1.037219  0
H  H5  1  0.43106764  0.73889972  0.90728207  1  0  0.128466  0.143296  0  1.037128  0
H  H6  1  0.65044813  0.89268594  0.51147530  1  0  0.13528  0.134705  0  0.988451  0
H  H7  1  0.34956087  0.10731756  0.48852672  1  0  0.135307  0.134698  0  0.988462  0
H  H8  1  0.37030471  0.11859129  0.95165172  1  0  0.106456  0.084271  0  1.007183  0
H  H9  1  0.62969445  0.88141127  0.04834479  1  0  0.106463  0.084328  0  1.007172  0
H  H10  1  0.53577331  0.12464446  0.99929736  1  0  0.110574  0.091373  0  0.98601  0
H  H11  1  0.46422476  0.87535707  0.00070141  1  0  0.110595  0.091404  0  0.986054  0
H  H12  1  0.82541627  0.72548766  0.58529685  1  0  0.10542  0.080631  0  1.008942  0
H  H13  1  0.17458606  0.27450988  0.41470433  1  0  0.105416  0.080626  0  1.008955  0
H  H14  1  0.93056645  0.66341452  0.47838086  1  0  0.118221  0.104851  0  1.003787  0
H  H15  1  0.06943256  0.33658105  0.52161911  1  0  0.118217  0.10487  0  1.003819  0
H  H16  1  0.44335150  0.34838710  0.77254400  1  0  0.092523  0.092323  0  1.020245  0
H  H17  1  0.55664877  0.65161645  0.22745279  1  0  0.092527  0.092345  0  1.020228  0
H  H18  1  0.61783674  0.32702255  0.80687814  1  0  0.090818  0.098494  0  1.016908  0
H  H19  1  0.38216458  0.67297900  0.19312005  1  0  0.090789  0.098447  0  1.017015  0
H  H20  1  0.71394201  0.51599404  0.62468266  1  0  0.096864  0.107416  0  0.994919  0
H  H21  1  0.28605388  0.48400648  0.37531687  1  0  0.096857  0.107407  0  0.99498  0
H  H22  1  0.59900240  0.64595056  0.55855099  1  0  0.084866  0.074358  0  1.017644  0
H  H23  1  0.40099677  0.35405199  0.44144637  1  0  0.084876  0.074365  0  1.017621  0
H  H24  1  0.46753519  0.12897311  0.74470134  1  0  0.07688  0.061798  0  1.023115  0
H  H25  1  0.53246399  0.87102942  0.25529686  1  0  0.076872  0.061795  0  1.023117  0
H  H26  1  0.57632486  0.26430659  0.62740049  1  0  0.089749  0.084365  0  0.993025  0
H  H27  1  0.42367754  0.73569497  0.37259750  1  0  0.089756  0.084392  0  0.993017  0
H  H28  1  0.70747897  0.64039899  0.34066656  1  0  0.089223  0.087313  0  1.007854  0
H  H29  1  0.29252016  0.35960155  0.65933239  1  0  0.089213  0.087282  0  1.007852  0
H  H30  1  0.59393810  0.50591947  0.45175653  1  0  0.085771  0.073994  0  1.032641  0
H  H31  1  0.40605995  0.49408106  0.54824261  1  0  0.085777  0.074025  0  1.032632  0
H  H32  1  0.68929559  0.04703303  0.84829943  1  0  0.081807  0.071467  0  1.013902  0
H  H33  1  0.31070141  0.95296747  0.15170160  1  0  0.08179  0.071468  0  1.013887  0
H  H34  1  0.79078365  0.17850725  0.71986361  1  0  0.085843  0.089839  0  1.016528  0
H  H35  1  0.20921652  0.82149027  0.28013796  1  0  0.08584  0.08981  0  1.016547  0
H  H36  1  0.92386150  0.50585875  0.38358978  1  0  0.087459  0.088332  0  0.99653  0
H  H37  1  0.07613767  0.49414173  0.61641256  1  0  0.087471  0.088357  0  0.996539  0
H  H38  1  0.81730673  0.37423729  0.51163037  1  0  0.085161  0.079281  0  0.995203  0
H  H39  1  0.18269138  0.62576419  0.48837179  1  0  0.085131  0.079251  0  0.995078  0
H  H40  1  0.63077644  0.95105347  0.70806149  1  0  0.07349  0.055955  0  1.033813  0
H  H41  1  0.36922270  0.04894603  0.29194037  1  0  0.073485  0.055933  0  1.033809  0
H  H42  1  0.71610458  0.08770173  0.57291217  1  0  0.081493  0.069328  0  1.006097  0
H  H43  1  0.28389560  0.91229578  0.42709024  1  0  0.08149  0.069303  0  1.006093  0
H  H44  1  0.67998413  0.35369905  0.35795301  1  0  0.07723  0.065544  0  1.012215  0
H  H45  1  0.32001715  0.64630049  0.64204677  1  0  0.077228  0.065523  0  1.012263  0
H  H46  1  0.79246757  0.48095880  0.23346866  1  0  0.076947  0.067939  0  1.036228  0
H  H47  1  0.20753477  0.51903975  0.76653130  1  0  0.076936  0.067908  0  1.036245  0
H  H48  1  0.95638261  0.02393479  0.62878677  1  0  0.08002  0.107597  0  1.029902  0
H  H49  1  0.04361650  0.97606373  0.37121462  1  0  0.080061  0.10765  0  1.02987  0
H  H50  1  0.87323859  0.88259915  0.63299409  1  0  0.077015  0.096971  0  1.059939  0
H  H51  1  0.12676160  0.11739937  0.36700711  1  0  0.077024  0.096982  0  1.059945  0
H  H52  1  0.87695285  0.89650096  0.77597824  1  0  0.081598  0.116966  0  1.013179  0
H  H53  1  0.12304738  0.10349855  0.22402343  1  0  0.081621  0.11698  0  1.013183  0
H  H54  1  0.01018097  0.33802542  0.28381665  1  0  0.076081  0.100981  0  1.058542  0
H  H55  1  0.98981924  0.66197205  0.71618831  1  0  0.076072  0.100969  0  1.058524  0
H  H56  1  0.88272789  0.26071950  0.24278553  1  0  0.074006  0.101462  0  1.05575  0
H  H57  1  0.11727556  0.73927799  0.75721884  1  0  0.073995  0.101436  0  1.055717  0
H  H58  1  0.89345110  0.20776887  0.40387817  1  0  0.07872  0.106449  0  1.028911  0
H  H59  1  0.10655027  0.79223158  0.59612633  1  0  0.078734  0.106494  0  1.028843  0
C  C60  1  0.25121312  0.31770658  0.99651862  1  0  0.320237  0.554859  0  4.162736  0
C  C61  1  0.74878936  0.68229898  0.00347704  1  0  0.320303  0.55495  0  4.162549  0
C  C62  1  0.89054203  0.85063207  0.27599785  1  0  0.322852  0.562603  0  4.157025  0
C  C63  1  0.10946033  0.14936850  0.72399967  1  0  0.322902  0.562741  0  4.157155  0
C  C64  1  0.46228645  0.30342593  0.08255521  1  0  0.033235  -0.066427  0  3.966934  0
C  C65  1  0.53771045  0.69657161  0.91744525  1  0  0.033202  -0.066516  0  3.966785  0
C  C66  1  0.71186039  0.91761092  0.41563974  1  0  0.040892  -0.06461  0  3.983057  0
C  C67  1  0.28814300  0.08238562  0.58436161  1  0  0.040919  -0.064476  0  3.98309  0
C  C68  1  0.40481763  0.39083005  0.13242733  1  0  0.067411  0.053782  0  4.094489  0
C  C69  1  0.59517823  0.60916948  0.86757173  1  0  0.067399  0.053779  0  4.094501  0
C  C70  1  0.69403439  0.03284989  0.31743541  1  0  0.076121  0.070039  0  4.078557  0
C  C71  1  0.30597135  0.96715258  0.68256841  1  0  0.076201  0.070061  0  4.078597  0
C  C72  1  0.26851113  0.45205232  0.11081763  1  0  0.205147  0.415654  0  4.241567  0
C  C73  1  0.73148470  0.54794519  0.88918387  1  0  0.20513  0.415534  0  4.241556  0
C  C74  1  0.77648379  0.06307146  0.19134876  1  0  0.205177  0.4093  0  4.26221  0
C  C75  1  0.22351754  0.93692802  0.80865441  1  0  0.205162  0.409261  0  4.26223  0
C  C76  1  0.45501597  0.18490777  0.94747182  1  0  -0.055549  -0.043677  0  3.856504  0
C  C77  1  0.54498535  0.81509482  0.05252345  1  0  -0.055558  -0.043771  0  3.856589  0
C  C78  1  0.82453976  0.70128969  0.50436560  1  0  -0.057669  -0.057042  0  3.864759  0
C  C79  1  0.17546150  0.29870885  0.49563455  1  0  -0.057683  -0.057072  0  3.864937  0
C  C80  1  0.52230466  0.27293667  0.80984925  1  0  -0.171165  -0.18606  0  3.92315  0
C  C81  1  0.47769559  0.72706589  0.19014791  1  0  -0.171152  -0.186087  0  3.92322  0
C  C82  1  0.70273758  0.60089969  0.53632964  1  0  -0.167649  -0.176256  0  3.94024  0
C  C83  1  0.29725940  0.39910083  0.46366970  1  0  -0.167665  -0.176273  0  3.940306  0
C  C84  1  0.56074369  0.19422767  0.72775633  1  0  -0.167909  -0.12986  0  3.940871  0
C  C85  1  0.43925975  0.80577189  0.27224221  1  0  -0.167919  -0.129869  0  3.94084  0
C  C86  1  0.70003717  0.55400990  0.43222557  1  0  -0.171092  -0.147595  0  3.946935  0
C  C87  1  0.29996301  0.44598966  0.56777271  1  0  -0.171063  -0.147522  0  3.946936  0
C  C88  1  0.69618182  0.11147557  0.74719082  1  0  -0.17423  -0.154123  0  3.92856  0
C  C89  1  0.30381835  0.88852298  0.25280868  1  0  -0.174202  -0.154099  0  3.928489  0
C  C90  1  0.81631344  0.45588202  0.41806764  1  0  -0.171173  -0.148759  0  3.92807  0
C  C91  1  0.18368570  0.54411749  0.58193337  1  0  -0.171147  -0.148755  0  3.927895  0
C  C92  1  0.72093490  0.02472926  0.67232522  1  0  -0.174895  -0.101537  0  3.989568  0
C  C93  1  0.27906422  0.97527027  0.32767495  1  0  -0.174883  -0.101484  0  3.989528  0
C  C94  1  0.79008643  0.39834593  0.32673536  1  0  -0.175889  -0.099328  0  3.976447  0
C  C95  1  0.20991487  0.60165358  0.67326611  1  0  -0.175875  -0.099263  0  3.976389  0
C  C96  1  0.86400550  0.95307353  0.67791853  1  0  -0.252373  -0.347788  0  3.947804  0
C  C97  1  0.13599363  0.04692598  0.32208249  1  0  -0.252435  -0.347852  0  3.947838  0
C  C98  1  0.89976036  0.29544454  0.31361497  1  0  -0.25964  -0.370822  0  3.994671  0
C  C99  1  0.10023988  0.70455494  0.68638840  1  0  -0.259646  -0.37085  0  3.994561  0
N  N100  1  0.38662716  0.26625163  0.01531540  1  0  -0.244216  -0.063249  0  3.665911  0
N  N101  1  0.61337199  0.73374992  0.98468233  1  0  -0.244238  -0.063224  0  3.665746  0
N  N102  1  0.80950568  0.82742685  0.39674287  1  0  -0.246555  -0.076688  0  3.681448  0
N  N103  1  0.19049886  0.17257268  0.60325802  1  0  -0.246641  -0.07692  0  3.68165  0
N  N104  1  0.19753108  0.40977354  0.04298187  1  0  -0.387922  -0.460833  0  3.536406  0
N  N105  1  0.80246700  0.59022797  0.95701775  1  0  -0.387896  -0.460798  0  3.536342  0
N  N106  1  0.87126662  0.96827226  0.17833483  1  0  -0.391757  -0.456905  0  3.555755  0
N  N107  1  0.12873361  0.03172828  0.82166478  1  0  -0.39176  -0.456917  0  3.555821  0
O  O108  1  0.18527322  0.27754525  0.93591847  1  0  -0.317315  -0.545665  0  2.385735  0
O  O109  1  0.81473469  0.72246134  0.06407584  1  0  -0.31737  -0.545715  0  2.385693  0
O  O110  1  0.97799575  0.76547306  0.26163647  1  0  -0.308176  -0.526525  0  2.299339  0
O  O111  1  0.02200111  0.23452350  0.73836267  1  0  -0.308245  -0.526618  0  2.299418  0
O  O112  1  0.21849999  0.53898905  0.15146385  1  0  -0.311564  -0.481574  0  2.31216  0
O  O113  1  0.78149366  0.46100848  0.84853634  1  0  -0.311563  -0.481508  0  2.312171  0
O  O114  1  0.76161190  0.17063694  0.09886029  1  0  -0.313358  -0.504481  0  2.348266  0
O  O115  1  0.23839271  0.82936456  0.90114155  1  0  -0.313329  -0.504405  0  2.348237  0
F  F116  1  0.48150429  0.42876635  0.19803854  1  0  -0.08288  -0.10459  0  1.436298  0
F  F117  1  0.51848717  0.57122811  0.80196655  1  0  -0.082864  -0.104556  0  1.436266  0
F  F118  1  0.59796053  0.12348954  0.33674133  1  0  -0.086695  -0.115369  0  1.410052  0
F  F119  1  0.40204626  0.87651298  0.66325975  1  0  -0.086728  -0.115362  0  1.409977  0
