# generated using pymatgen
data_CaZnH6(CO)10
_symmetry_space_group_name_H-M   'P 1'
_cell_length_a   6.10242568
_cell_length_b   9.89793961
_cell_length_c   10.31443934
_cell_angle_alpha   90.00005537
_cell_angle_beta   94.60273199
_cell_angle_gamma   89.99996109
_symmetry_Int_Tables_number   1
_chemical_formula_structural   CaZnH6(CO)10
_chemical_formula_sum   'Ca2 Zn2 H12 C20 O20'
_cell_volume   620.99783387
_cell_formula_units_Z   2
loop_
 _symmetry_equiv_pos_site_id
 _symmetry_equiv_pos_as_xyz
  1  'x, y, z'
loop_
 _atom_site_type_symbol
 _atom_site_label
 _atom_site_symmetry_multiplicity
 _atom_site_fract_x
 _atom_site_fract_y
 _atom_site_fract_z
 _atom_site_occupancy
 _atom_site_hle17_bader_spin_density
 _atom_site_hle17_ddec_charge
 _atom_site_hle17_ddec_spin_density
 _atom_site_hle17_ddec_sum_bond_order
 _atom_site_hle17_magmom
 _atom_site_hse06_10hf_bader_spin_density
 _atom_site_hse06_10hf_ddec_charge
 _atom_site_hse06_10hf_ddec_spin_density
 _atom_site_hse06_10hf_ddec_sum_bond_order
 _atom_site_hse06_10hf_magmom
 _atom_site_hse06_bader_spin_density
 _atom_site_hse06_ddec_charge
 _atom_site_hse06_ddec_spin_density
 _atom_site_hse06_ddec_sum_bond_order
 _atom_site_hse06_magmom
 _atom_site_pbe_bader_spin_density
 _atom_site_pbe_cm5_charge
 _atom_site_pbe_ddec_charge
 _atom_site_pbe_ddec_spin_density
 _atom_site_pbe_ddec_sum_bond_order
 _atom_site_pbe_magmom
Ca  Ca0  1  0.24999998  0.49087017  0.74999955  1  0  1.624802  0  1.00092  0  0  1.503866  0  1.341845  0  0  1.543956  0  1.297593  0  0  0.876595  1.472507  0  1.37552  0
Ca  Ca1  1  0.75000298  0.50913119  0.25000193  1  0  1.624776  0  1.000942  0  0  1.50383  0  1.341885  0  0  1.54392  0  1.297633  0  0  0.876593  1.472488  0  1.375529  0
Zn  Zn2  1  0.74999758  0.22637057  0.75000008  1  0  1.14482  0  1.746955  0  0  0.965651  0  2.225003  0  0  1.016226  0  2.162761  0  0  0.708621  0.929737  0  2.268575  0
Zn  Zn3  1  0.24999886  0.77363078  0.25000001  1  0  1.144819  0  1.747003  0  0  0.965637  0  2.225062  0  0  1.016218  0  2.162821  0  0  0.70861  0.929719  0  2.268632  0
H  H4  1  0.84472924  0.63243694  0.86082471  1  0  0.435996  0  0.81711  0  0  0.417289  0  0.87289  0  0  0.425174  0  0.863997  0  0  0.327519  0.411488  0  0.879466  0
H  H5  1  0.65526757  0.63243686  0.63916722  1  0  0.436026  0  0.817093  0  0  0.417333  0  0.872827  0  0  0.425216  0  0.863931  0  0  0.327549  0.411534  0  0.879395  0
H  H6  1  0.15525804  0.36756138  0.13916025  1  0  0.436032  0  0.817035  0  0  0.417319  0  0.872816  0  0  0.425202  0  0.863949  0  0  0.327532  0.411518  0  0.879393  0
H  H7  1  0.34472295  0.36756449  0.36081892  1  0  0.436013  0  0.817053  0  0  0.417308  0  0.87283  0  0  0.425192  0  0.863964  0  0  0.327519  0.411506  0  0.879405  0
H  H8  1  0.84898310  0.48096907  0.89731962  1  0  0.437838  0  0.859167  0  0  0.404599  0  0.927398  0  0  0.41564  0  0.910921  0  0  0.307518  0.396561  0  0.939461  0
H  H9  1  0.65101344  0.48096694  0.60268088  1  0  0.437835  0  0.85917  0  0  0.404594  0  0.927402  0  0  0.415636  0  0.910924  0  0  0.307525  0.396558  0  0.939463  0
H  H10  1  0.15101000  0.51903431  0.10268123  1  0  0.437811  0  0.859206  0  0  0.404563  0  0.927449  0  0  0.415606  0  0.910969  0  0  0.307507  0.396526  0  0.939512  0
H  H11  1  0.34898943  0.51903037  0.39732254  1  0  0.4378  0  0.859173  0  0  0.404554  0  0.927421  0  0  0.415598  0  0.910939  0  0  0.307478  0.396518  0  0.939482  0
H  H12  1  0.84962290  0.09305662  0.10083700  1  0  0.116686  0  0.927233  0  0  0.127949  0  0.98301  0  0  0.131748  0  0.980804  0  0  0.11398  0.124958  0  0.985174  0
H  H13  1  0.65038193  0.09305479  0.39916446  1  0  0.11663  0  0.927336  0  0  0.127948  0  0.983045  0  0  0.131748  0  0.980836  0  0  0.113993  0.124958  0  0.985208  0
H  H14  1  0.15037500  0.90694474  0.89916706  1  0  0.116676  0  0.927301  0  0  0.127926  0  0.983096  0  0  0.131725  0  0.980889  0  0  0.114001  0.124935  0  0.985255  0
H  H15  1  0.34962094  0.90694151  0.60083896  1  0  0.116651  0  0.927254  0  0  0.127934  0  0.983011  0  0  0.131734  0  0.980803  0  0  0.113973  0.124941  0  0.985174  0
C  C16  1  0.58738967  0.28987839  0.00110134  1  0  0.717618  0  3.855978  0  0  0.65798  0  4.161889  0  0  0.694124  0  4.149872  0  0  0.244213  0.632667  0  4.170362  0
C  C17  1  0.91261505  0.28988060  0.49889836  1  0  0.717502  0  3.856104  0  0  0.657827  0  4.162079  0  0  0.693972  0  4.150062  0  0  0.244124  0.632515  0  4.170544  0
C  C18  1  0.41260850  0.71012195  0.99889693  1  0  0.717368  0  3.856269  0  0  0.657778  0  4.162119  0  0  0.693925  0  4.150107  0  0  0.244125  0.632466  0  4.170592  0
C  C19  1  0.08739129  0.71011873  0.50110140  1  0  0.717494  0  3.856191  0  0  0.657844  0  4.162109  0  0  0.693993  0  4.150093  0  0  0.24414  0.632532  0  4.17058  0
C  C20  1  0.15973804  0.17483276  0.88170352  1  0  0.663732  0  3.900863  0  0  0.611067  0  4.195602  0  0  0.645681  0  4.18792  0  0  0.219399  0.587477  0  4.200066  0
C  C21  1  0.34026219  0.17482855  0.61829627  1  0  0.663678  0  3.900786  0  0  0.611019  0  4.195524  0  0  0.645626  0  4.187845  0  0  0.21938  0.587427  0  4.199984  0
C  C22  1  0.84025497  0.82516960  0.11829926  1  0  0.66362  0  3.900912  0  0  0.610996  0  4.195593  0  0  0.645604  0  4.187919  0  0  0.219377  0.587403  0  4.20006  0
C  C23  1  0.65974091  0.82516876  0.38170231  1  0  0.663831  0  3.900788  0  0  0.611154  0  4.195528  0  0  0.645774  0  4.187851  0  0  0.219451  0.587561  0  4.199995  0
C  C24  1  0.53461282  0.14095448  0.00021606  1  0  -0.077917  0  3.727244  0  0  -0.065127  0  3.969382  0  0  -0.068253  0  3.986604  0  0  -0.00671  -0.063014  0  3.958203  0
C  C25  1  0.96538543  0.14095161  0.49978406  1  0  -0.07782  0  3.727196  0  0  -0.065011  0  3.969326  0  0  -0.068141  0  3.986539  0  0  -0.006689  -0.062898  0  3.958142  0
C  C26  1  0.46538521  0.85904991  0.99978511  1  0  -0.077827  0  3.727208  0  0  -0.065075  0  3.969364  0  0  -0.068202  0  3.986574  0  0  -0.006684  -0.062962  0  3.958181  0
C  C27  1  0.03461110  0.85904671  0.50021410  1  0  -0.077973  0  3.727332  0  0  -0.065204  0  3.969476  0  0  -0.068324  0  3.986703  0  0  -0.006773  -0.063089  0  3.95829  0
C  C28  1  0.33637950  0.08620926  0.94415658  1  0  -0.05747  0  3.718344  0  0  -0.045472  0  3.956742  0  0  -0.050484  0  3.976311  0  0  -0.007836  -0.042201  0  3.943715  0
C  C29  1  0.16361416  0.08620607  0.55584465  1  0  -0.057563  0  3.718319  0  0  -0.045601  0  3.956745  0  0  -0.050591  0  3.976285  0  0  -0.007882  -0.042325  0  3.943713  0
C  C30  1  0.66361689  0.91379512  0.05584448  1  0  -0.05735  0  3.718278  0  0  -0.045375  0  3.956676  0  0  -0.05037  0  3.976224  0  0  -0.007819  -0.042101  0  3.943647  0
C  C31  1  0.83638387  0.91379124  0.44415652  1  0  -0.057409  0  3.718343  0  0  -0.045378  0  3.956681  0  0  -0.050412  0  3.97628  0  0  -0.007814  -0.042103  0  3.94365  0
C  C32  1  0.69515612  0.05374440  0.05586831  1  0  -0.052935  0  3.676014  0  0  -0.090018  0  3.932475  0  0  -0.089146  0  3.949382  0  0  -0.072187  -0.090715  0  3.921777  0
C  C33  1  0.80484217  0.05374155  0.44413269  1  0  -0.052904  0  3.676024  0  0  -0.090053  0  3.932472  0  0  -0.089169  0  3.949389  0  0  -0.072228  -0.09075  0  3.921772  0
C  C34  1  0.30484018  0.94625796  0.94413468  1  0  -0.052921  0  3.676085  0  0  -0.090011  0  3.932584  0  0  -0.089133  0  3.949495  0  0  -0.072247  -0.090707  0  3.921885  0
C  C35  1  0.19515755  0.94625475  0.55586761  1  0  -0.052784  0  3.675855  0  0  -0.089875  0  3.9323  0  0  -0.089003  0  3.949205  0  0  -0.07213  -0.090572  0  3.9216  0
O  O36  1  0.66272626  0.34101978  0.89767516  1  0  -0.68674  0  2.095899  0  0  -0.603578  0  2.368187  0  0  -0.633094  0  2.348464  0  0  -0.29127  -0.582323  0  2.382178  0
O  O37  1  0.83727202  0.34101555  0.60232628  1  0  -0.686765  0  2.09588  0  0  -0.603586  0  2.368174  0  0  -0.63312  0  2.348471  0  0  -0.291277  -0.58234  0  2.382189  0
O  O38  1  0.33726201  0.65898663  0.10232343  1  0  -0.686682  0  2.096014  0  0  -0.603513  0  2.368286  0  0  -0.633036  0  2.348548  0  0  -0.291262  -0.582245  0  2.382238  0
O  O39  1  0.16273099  0.65898378  0.39767423  1  0  -0.686727  0  2.096018  0  0  -0.603558  0  2.368332  0  0  -0.633084  0  2.348594  0  0  -0.291264  -0.582294  0  2.382296  0
O  O40  1  0.57115171  0.35481216  0.10389341  1  0  -0.664821  0  1.956246  0  0  -0.611465  0  2.2013  0  0  -0.637494  0  2.189165  0  0  -0.345078  -0.592477  0  2.210112  0
O  O41  1  0.92884947  0.35480719  0.39611000  1  0  -0.664688  0  1.95647  0  0  -0.611285  0  2.201479  0  0  -0.637309  0  2.189343  0  0  -0.344949  -0.592296  0  2.210286  0
O  O42  1  0.42884797  0.64519222  0.89610786  1  0  -0.664675  0  1.956454  0  0  -0.611324  0  2.201464  0  0  -0.637353  0  2.18933  0  0  -0.34499  -0.592337  0  2.210276  0
O  O43  1  0.07115358  0.64519013  0.60388955  1  0  -0.66471  0  1.956443  0  0  -0.611334  0  2.201458  0  0  -0.637358  0  2.189317  0  0  -0.344983  -0.592344  0  2.210268  0
O  O44  1  0.18435373  0.30145204  0.88392347  1  0  -0.691846  0  2.022375  0  0  -0.633754  0  2.272173  0  0  -0.660027  0  2.26277  0  0  -0.350547  -0.615027  0  2.278331  0
O  O45  1  0.31564924  0.30144884  0.61608535  1  0  -0.691762  0  2.022274  0  0  -0.6337  0  2.272108  0  0  -0.65997  0  2.262702  0  0  -0.350545  -0.614995  0  2.278311  0
O  O46  1  0.81564407  0.69855032  0.11608253  1  0  -0.691781  0  2.02242  0  0  -0.63373  0  2.272241  0  0  -0.660001  0  2.262838  0  0  -0.350538  -0.615009  0  2.278401  0
O  O47  1  0.68435193  0.69854948  0.38391893  1  0  -0.691831  0  2.022351  0  0  -0.633764  0  2.272177  0  0  -0.660035  0  2.262765  0  0  -0.350555  -0.615061  0  2.278371  0
O  O48  1  0.99060146  0.11344504  0.82720218  1  0  -0.644422  0  2.067292  0  0  -0.570386  0  2.338322  0  0  -0.601327  0  2.325967  0  0  -0.312847  -0.548487  0  2.346121  0
O  O49  1  0.50940376  0.11344304  0.67279659  1  0  -0.644434  0  2.067333  0  0  -0.570382  0  2.33835  0  0  -0.601327  0  2.326002  0  0  -0.312847  -0.548479  0  2.346145  0
O  O50  1  0.00939652  0.88655530  0.17279995  1  0  -0.64442  0  2.067298  0  0  -0.570381  0  2.338304  0  0  -0.601325  0  2.325954  0  0  -0.312859  -0.548484  0  2.346106  0
O  O51  1  0.49060282  0.88655427  0.32719834  1  0  -0.644503  0  2.067224  0  0  -0.570476  0  2.338289  0  0  -0.601417  0  2.325929  0  0  -0.312895  -0.548576  0  2.346092  0
O  O52  1  0.93990355  0.55368417  0.86319017  1  0  -0.880599  0  1.831369  0  0  -0.833898  0  2.028343  0  0  -0.852693  0  2.000035  0  0  -0.618762  -0.820082  0  2.04877  0
O  O53  1  0.56009461  0.55368211  0.63680953  1  0  -0.880616  0  1.831376  0  0  -0.833922  0  2.028383  0  0  -0.852717  0  2.000062  0  0  -0.61879  -0.820104  0  2.04881  0
O  O54  1  0.06009124  0.44631921  0.13680982  1  0  -0.880579  0  1.83131  0  0  -0.833867  0  2.028318  0  0  -0.852662  0  2.000029  0  0  -0.618752  -0.820054  0  2.048739  0
O  O55  1  0.43990666  0.44631318  0.36319281  1  0  -0.880582  0  1.831322  0  0  -0.833865  0  2.028267  0  0  -0.852663  0  1.99998  0  0  -0.618713  -0.820051  0  2.048688  0
