# generated using pymatgen
data_NaCuH7C7SO8
_symmetry_space_group_name_H-M   'P 1'
_cell_length_a   11.07171469
_cell_length_b   11.58283684
_cell_length_c   11.58248472
_cell_angle_alpha   108.12414082
_cell_angle_beta   100.11943413
_cell_angle_gamma   100.11957036
_symmetry_Int_Tables_number   1
_chemical_formula_structural   NaCuH7C7SO8
_chemical_formula_sum   'Na4 Cu4 H28 C28 S4 O32'
_cell_volume   1346.92072993
_cell_formula_units_Z   4
loop_
 _symmetry_equiv_pos_site_id
 _symmetry_equiv_pos_as_xyz
  1  'x, y, z'
loop_
 _atom_site_type_symbol
 _atom_site_label
 _atom_site_symmetry_multiplicity
 _atom_site_fract_x
 _atom_site_fract_y
 _atom_site_fract_z
 _atom_site_occupancy
 _atom_site_pbe_bader_charge
 _atom_site_pbe_bader_spin_density
 _atom_site_pbe_cm5_charge
 _atom_site_pbe_ddec_charge
 _atom_site_pbe_ddec_spin_density
 _atom_site_pbe_ddec_sum_bond_order
 _atom_site_pbe_magmom
Na  Na0  1  0.74999855  0.86185940  0.13814055  1  0.882811  0.0  0.703187  0.869419  0.0  0.558476  0.0
Na  Na1  1  0.25000248  0.13813927  0.86185844  1  0.882802  -0.0  0.703214  0.869403  -0.0  0.558515  0.0
Na  Na2  1  0.74999947  0.04765971  0.95234119  1  0.890841  -0.0  0.692754  0.886512  -0.0  0.533975  0.0
Na  Na3  1  0.25000018  0.95234080  0.04766247  1  0.890843  0.0  0.692773  0.886506  0.0  0.53398  0.0
Cu  Cu4  1  0.02461141  0.79545325  0.16768956  1  1.120976  0.594286  0.713261  0.945724  0.770312  2.14395  0.596
Cu  Cu5  1  0.47538842  0.83231172  0.20454979  1  1.121017  -0.594299  0.713315  0.94588  -0.770327  2.143863  -0.596
Cu  Cu6  1  0.97538893  0.20454635  0.83231134  1  1.120902  -0.594281  0.713246  0.945686  -0.770303  2.143947  -0.596
Cu  Cu7  1  0.52461238  0.16768602  0.79544887  1  1.12101  0.594289  0.713278  0.945818  0.770313  2.143702  0.596
H  H8  1  0.83608806  0.64622246  0.98183257  1  0.659737  0.000429  0.293451  0.394057  0.000744  0.949793  0.001
H  H9  1  0.66390857  0.01816372  0.35377541  1  0.659731  -0.000429  0.293459  0.394076  -0.000744  0.949793  -0.001
H  H10  1  0.16391298  0.35377996  0.01816762  1  0.659719  -0.000429  0.293447  0.394097  -0.000743  0.949747  -0.001
H  H11  1  0.33608903  0.98183219  0.64621609  1  0.659695  0.000429  0.293431  0.394102  0.000743  0.949761  0.001
H  H12  1  0.89924797  0.76621729  0.95014784  1  0.656395  4.9e-05  0.301595  0.406876  0.000489  0.926603  0.0
H  H13  1  0.60075279  0.04985066  0.23378365  1  0.656433  -4.9e-05  0.30159  0.406876  -0.000489  0.926604  0.0
H  H14  1  0.10075306  0.23378512  0.04985407  1  0.656345  -4.9e-05  0.301581  0.406864  -0.000489  0.926623  0.0
H  H15  1  0.39924915  0.95014800  0.76621636  1  0.656353  4.9e-05  0.301579  0.406851  0.000489  0.926634  0.0
H  H16  1  0.08866524  0.68502440  0.96912681  1  0.6217  0.00063  0.338668  0.424479  0.000675  0.84803  0.0
H  H17  1  0.41133148  0.03087055  0.31497552  1  0.621697  -0.000631  0.338703  0.424509  -0.000675  0.848041  0.0
H  H18  1  0.91133420  0.31497896  0.03087341  1  0.621681  -0.00063  0.338661  0.424442  -0.000675  0.848098  0.0
H  H19  1  0.58866449  0.96912250  0.68502083  1  0.621659  0.00063  0.338641  0.424431  0.000675  0.848073  0.0
H  H20  1  0.20807074  0.71423684  0.08750800  1  0.659858  -0.00021  0.297362  0.3937  -0.000152  0.953461  0.0
H  H21  1  0.29192756  0.91248956  0.28576035  1  0.659852  0.000209  0.297287  0.393596  0.000151  0.953607  0.0
H  H22  1  0.79192779  0.28576654  0.91249035  1  0.659715  0.00021  0.29735  0.393692  0.000152  0.953462  0.0
H  H23  1  0.70807484  0.08750726  0.71423657  1  0.659836  -0.000209  0.297367  0.393675  -0.000151  0.953492  0.0
H  H24  1  0.83608452  0.11172073  0.34358196  1  0.115547  -0.000859  0.113781  0.112181  -0.000717  1.039845  -0.001
H  H25  1  0.66391632  0.65642058  0.88828038  1  0.115549  0.00086  0.113782  0.112205  0.000718  1.039837  0.001
H  H26  1  0.16391927  0.88828167  0.65642128  1  0.11553  0.000859  0.113777  0.112216  0.000717  1.039826  0.001
H  H27  1  0.33608519  0.34358001  0.11171499  1  0.115592  -0.000859  0.113784  0.112248  -0.000717  1.039775  -0.001
H  H28  1  0.26416878  0.19849612  0.61573704  1  0.086987  7.5e-05  0.106874  0.12419  -3.6e-05  1.025111  0.0
H  H29  1  0.23582967  0.38426480  0.80150395  1  0.087221  -7.5e-05  0.106859  0.124188  3.6e-05  1.025121  0.0
H  H30  1  0.73582812  0.80150813  0.38426736  1  0.08719  -7.6e-05  0.106911  0.124234  3.6e-05  1.025036  0.0
H  H31  1  0.76417181  0.61573200  0.19849367  1  0.086963  7.5e-05  0.106893  0.124188  -3.6e-05  1.025101  0.0
H  H32  1  0.23787787  0.16601469  0.38887661  1  0.072851  -0.001626  0.11221  0.112497  -0.000862  0.974743  -0.001
H  H33  1  0.26212130  0.61112423  0.83399351  1  0.072795  0.001627  0.11221  0.112446  0.000862  0.974922  0.001
H  H34  1  0.76212364  0.83399705  0.61113183  1  0.072989  0.001626  0.112216  0.112451  0.000862  0.974789  0.001
H  H35  1  0.73787789  0.38887071  0.16600226  1  0.072977  -0.001626  0.112237  0.112495  -0.000862  0.974864  -0.001
C  C36  1  0.03371515  0.13546092  0.35229724  1  -0.208433  -0.000679  -0.035983  -0.135747  -0.000429  4.029017  -0.001
C  C37  1  0.46628586  0.64771436  0.86454175  1  -0.208397  0.000677  -0.035953  -0.136092  0.000428  4.028997  0.001
C  C38  1  0.96628568  0.86455176  0.64771138  1  -0.208156  0.000678  -0.035972  -0.136001  0.000429  4.029267  0.001
C  C39  1  0.53371405  0.35228345  0.13544987  1  -0.208229  -0.000675  -0.035911  -0.136004  -0.000427  4.029019  -0.001
C  C40  1  0.92982649  0.13050031  0.40349267  1  -0.020974  -0.000175  -0.076746  -0.073353  -0.000155  3.987669  0.0
C  C41  1  0.57017507  0.59650274  0.86950681  1  -0.020813  0.000175  -0.076761  -0.073328  0.000155  3.987469  0.0
C  C42  1  0.07017570  0.86950676  0.59651266  1  -0.021231  0.000175  -0.076793  -0.073356  0.000155  3.987799  0.0
C  C43  1  0.42982503  0.40349217  0.13049255  1  -0.021156  -0.000176  -0.076769  -0.073433  -0.000155  3.987452  0.0
C  C44  1  0.94187829  0.14656722  0.53065636  1  0.028259  -0.004103  -0.04122  -0.198784  -0.0024  3.974183  -0.004
C  C45  1  0.55811787  0.46934268  0.85342531  1  0.028115  0.004102  -0.041132  -0.198553  0.0024  3.974194  0.004
C  C46  1  0.05812044  0.85343700  0.46935179  1  0.028127  0.004102  -0.041135  -0.198579  0.0024  3.974192  0.004
C  C47  1  0.44188065  0.53065323  0.14656720  1  0.028035  -0.004097  -0.041028  -0.198369  -0.002396  3.974395  -0.004
C  C48  1  0.06528453  0.17115618  0.60876787  1  0.616677  -0.001646  0.094293  0.349188  -0.002606  4.080277  0.001
C  C49  1  0.43471884  0.39122650  0.82884608  1  0.617038  0.001641  0.094245  0.349136  0.002606  4.080361  -0.001
C  C50  1  0.93471536  0.82884902  0.39123647  1  0.616671  0.001646  0.09435  0.349192  0.002607  4.08028  -0.001
C  C51  1  0.56528329  0.60876184  0.17115240  1  0.616966  -0.001644  0.094316  0.349174  -0.002606  4.080286  0.001
C  C52  1  0.17081219  0.17995026  0.55461658  1  -0.025297  -0.011392  -0.101603  -0.197237  -0.008296  3.931088  -0.01
C  C53  1  0.32918715  0.44538819  0.82005259  1  -0.025508  0.011396  -0.101737  -0.197466  0.008297  3.930904  0.01
C  C54  1  0.82918773  0.82005870  0.44538724  1  -0.025326  0.011391  -0.101725  -0.197369  0.008295  3.931207  0.01
C  C55  1  0.67081251  0.55461236  0.17994677  1  -0.025175  -0.011386  -0.101751  -0.197401  -0.008292  3.930955  -0.01
C  C56  1  0.15583574  0.16150938  0.42900425  1  0.000137  -0.001214  -0.074871  -0.042533  -0.000763  3.995284  -0.001
C  C57  1  0.34416262  0.57100592  0.83849316  1  -1.6e-05  0.001215  -0.074766  -0.042186  0.000763  3.995083  0.001
C  C58  1  0.84416233  0.83849956  0.57100097  1  -0.0001  0.001214  -0.074847  -0.042343  0.000763  3.995281  0.001
C  C59  1  0.65583729  0.42899188  0.16149847  1  -0.000149  -0.001215  -0.074871  -0.042365  -0.000764  3.995158  -0.001
C  C60  1  0.82405985  0.12651606  0.57292646  1  1.511252  0.001053  0.2187  0.609119  -0.000324  4.137082  0.002
C  C61  1  0.67594020  0.42707686  0.87347756  1  1.511294  -0.001052  0.218604  0.60896  0.000325  4.136839  -0.002
C  C62  1  0.17593727  0.87348166  0.42707329  1  1.511321  -0.001053  0.218625  0.608936  0.000323  4.137181  -0.002
C  C63  1  0.32406566  0.57291905  0.12651619  1  1.51081  0.001054  0.218629  0.609043  -0.000323  4.137095  0.002
S  S64  1  0.01234550  0.09945214  0.18925364  1  3.171216  -0.000159  0.518922  1.230587  -0.00022  6.174088  0.0
S  S65  1  0.48764952  0.81074868  0.90054678  1  3.171021  0.000159  0.518899  1.230674  0.00022  6.173921  0.0
S  S66  1  0.98765461  0.90055024  0.81075070  1  3.170508  0.000159  0.518843  1.230577  0.00022  6.173915  0.0
S  S67  1  0.51234693  0.18925373  0.09945350  1  3.171436  -0.000158  0.518897  1.230725  -0.00022  6.173796  0.0
O  O68  1  0.87521954  0.04768515  0.13476767  1  -1.365915  -0.00049  -0.467104  -0.714041  -0.00035  2.253861  0.0
O  O69  1  0.62477885  0.86523758  0.95231505  1  -1.365914  0.00049  -0.467174  -0.7141  0.00035  2.253704  0.0
O  O70  1  0.12478078  0.95231440  0.86523839  1  -1.365919  0.00049  -0.467111  -0.714001  0.00035  2.253788  0.0
O  O71  1  0.37522012  0.13476019  0.04767986  1  -1.36601  -0.00049  -0.467203  -0.714116  -0.00035  2.25366  0.0
O  O72  1  0.08613684  0.00626830  0.14881764  1  -1.35604  -0.002106  -0.397339  -0.703425  -0.00132  2.297584  -0.001
O  O73  1  0.41386241  0.85118758  0.99373377  1  -1.356129  0.002106  -0.39729  -0.703408  0.00132  2.29758  0.001
O  O74  1  0.91386235  0.99373407  0.85118741  1  -1.355626  0.002106  -0.397287  -0.703396  0.00132  2.297526  0.001
O  O75  1  0.58613634  0.14881298  0.00626458  1  -1.355976  -0.002106  -0.397297  -0.703434  -0.00132  2.297459  -0.001
O  O76  1  0.06050577  0.21736559  0.16982387  1  -1.334859  -0.001189  -0.342221  -0.60259  -0.00066  2.165881  -0.001
O  O77  1  0.43949212  0.83017609  0.78263655  1  -1.334586  0.001187  -0.34221  -0.602548  0.000659  2.165993  0.001
O  O78  1  0.93949732  0.78263401  0.83017750  1  -1.334476  0.001189  -0.342209  -0.602557  0.00066  2.16584  0.001
O  O79  1  0.56050501  0.16982537  0.21736441  1  -1.335026  -0.001187  -0.342188  -0.602551  -0.000659  2.165934  -0.001
O  O80  1  0.71615497  0.08274366  0.49830338  1  -1.183178  -0.018292  -0.31488  -0.531986  -0.011599  2.156854  -0.016
O  O81  1  0.78384577  0.50169867  0.91725354  1  -1.183203  0.018286  -0.314792  -0.531844  0.011595  2.15687  0.016
O  O82  1  0.28384353  0.91725590  0.50170065  1  -1.183152  0.018288  -0.31485  -0.531932  0.011597  2.156856  0.016
O  O83  1  0.21616077  0.49830003  0.08274467  1  -1.183091  -0.018286  -0.314826  -0.531943  -0.011596  2.156944  -0.016
O  O84  1  0.83022045  0.15294925  0.69287681  1  -1.122219  -0.095521  -0.327563  -0.562843  -0.062857  2.45716  -0.088
O  O85  1  0.66977604  0.30711945  0.84704410  1  -1.122222  0.09552  -0.327572  -0.562943  0.062857  2.456826  0.088
O  O86  1  0.16977690  0.84704567  0.30712037  1  -1.122206  0.095521  -0.327516  -0.562788  0.062857  2.457132  0.088
O  O87  1  0.33022320  0.69288304  0.15294890  1  -1.122081  -0.095546  -0.327607  -0.563007  -0.062872  2.456774  -0.088
O  O88  1  0.09076200  0.18386752  0.72861790  1  -1.118502  -0.139841  -0.39994  -0.600017  -0.090114  2.467704  -0.126
O  O89  1  0.40923467  0.27137732  0.81611853  1  -1.118685  0.13983  -0.399909  -0.600021  0.090109  2.467575  0.126
O  O90  1  0.90923995  0.81613115  0.27138212  1  -1.118453  0.139842  -0.39994  -0.600028  0.090114  2.467623  0.126
O  O91  1  0.59075809  0.72861760  0.18387787  1  -1.118598  -0.139834  -0.39998  -0.600163  -0.09011  2.467483  -0.126
O  O92  1  0.87533099  0.74063318  0.02078137  1  -1.255639  0.069509  -0.623761  -0.820291  0.045713  2.209071  0.061
O  O93  1  0.62466515  0.97921674  0.25936923  1  -1.255663  -0.069498  -0.623784  -0.820333  -0.045706  2.209114  -0.061
O  O94  1  0.12467073  0.25936829  0.97921951  1  -1.255536  -0.06951  -0.623759  -0.820319  -0.045713  2.208994  -0.061
O  O95  1  0.37533082  0.02078002  0.74063176  1  -1.255556  0.069519  -0.623759  -0.820343  0.045719  2.208985  0.061
O  O96  1  0.13658289  0.74797378  0.04958876  1  -1.217314  0.049151  -0.603883  -0.797707  0.032979  2.215285  0.043
O  O97  1  0.36341658  0.95040706  0.25202522  1  -1.217391  -0.049153  -0.603837  -0.797642  -0.032979  2.215409  -0.043
O  O98  1  0.86341401  0.25202672  0.95041444  1  -1.217204  -0.049153  -0.603854  -0.797672  -0.03298  2.215342  -0.043
O  O99  1  0.63658717  0.04958410  0.74797357  1  -1.217355  0.04916  -0.603838  -0.797636  0.032983  2.215239  0.043
