# generated using pymatgen
data_LiH11C12SO5
_symmetry_space_group_name_H-M   'P 1'
_cell_length_a   6.05117061
_cell_length_b   10.59670183
_cell_length_c   10.79279017
_cell_angle_alpha   74.00049479
_cell_angle_beta   89.66744651
_cell_angle_gamma   74.22141583
_symmetry_Int_Tables_number   1
_chemical_formula_structural   LiH11C12SO5
_chemical_formula_sum   'Li2 H22 C24 S2 O10'
_cell_volume   638.39470298
_cell_formula_units_Z   2
loop_
 _symmetry_equiv_pos_site_id
 _symmetry_equiv_pos_as_xyz
  1  'x, y, z'
loop_
 _atom_site_type_symbol
 _atom_site_label
 _atom_site_symmetry_multiplicity
 _atom_site_fract_x
 _atom_site_fract_y
 _atom_site_fract_z
 _atom_site_occupancy
 _atom_site_hle17_bader_spin_density
 _atom_site_hle17_ddec_charge
 _atom_site_hle17_ddec_spin_density
 _atom_site_hle17_ddec_sum_bond_order
 _atom_site_hle17_magmom
 _atom_site_hse06_10hf_bader_spin_density
 _atom_site_hse06_10hf_ddec_charge
 _atom_site_hse06_10hf_ddec_spin_density
 _atom_site_hse06_10hf_ddec_sum_bond_order
 _atom_site_hse06_10hf_magmom
 _atom_site_hse06_bader_spin_density
 _atom_site_hse06_ddec_charge
 _atom_site_hse06_ddec_spin_density
 _atom_site_hse06_ddec_sum_bond_order
 _atom_site_hse06_magmom
 _atom_site_pbe_bader_spin_density
 _atom_site_pbe_cm5_charge
 _atom_site_pbe_ddec_charge
 _atom_site_pbe_ddec_spin_density
 _atom_site_pbe_ddec_sum_bond_order
 _atom_site_pbe_magmom
Li  Li0  1  0.25494736  0.56853590  0.61390671  1  0  0.853176  0  0.403809  0  0  0.817932  0  0.499863  0  0  0.825457  0  0.486084  0  0  0.516557  0.812087  0  0.51061  0
Li  Li1  1  0.74504326  0.43147158  0.38609322  1  0  0.853214  0  0.403732  0  0  0.817967  0  0.4998  0  0  0.825492  0  0.486022  0  0  0.516552  0.812119  0  0.51055  0
H  H2  1  0.64408824  0.60719782  0.64768469  1  0  0.436802  0  0.856181  0  0  0.409654  0  0.91296  0  0  0.419121  0  0.898914  0  0  0.303207  0.402637  0  0.923414  0
H  H3  1  0.35592906  0.39280227  0.35232240  1  0  0.436814  0  0.856174  0  0  0.409671  0  0.912939  0  0  0.419131  0  0.898906  0  0  0.303229  0.402662  0  0.923385  0
H  H4  1  0.69279825  0.46579784  0.60950596  1  0  0.418609  0  0.893829  0  0  0.386019  0  0.961216  0  0  0.39708  0  0.944876  0  0  0.29621  0.377992  0  0.97306  0
H  H5  1  0.30720502  0.53419528  0.39048752  1  0  0.418636  0  0.893835  0  0  0.386069  0  0.961186  0  0  0.397126  0  0.94485  0  0  0.296258  0.378044  0  0.973027  0
H  H6  1  0.06314831  0.37148310  0.63801971  1  0  0.394815  0  0.911703  0  0  0.3644  0  0.987394  0  0  0.376255  0  0.973529  0  0  0.303289  0.356055  0  0.995825  0
H  H7  1  0.93683923  0.62851627  0.36197972  1  0  0.3948  0  0.911788  0  0  0.364375  0  0.987497  0  0  0.376228  0  0.973587  0  0  0.3033  0.356032  0  0.995928  0
H  H8  1  0.46219980  0.74412185  0.35300259  1  0  0.117621  0  0.968231  0  0  0.124745  0  1.032584  0  0  0.129096  0  1.030279  0  0  0.11152  0.121641  0  1.03439  0
H  H9  1  0.53781100  0.25587323  0.64699394  1  0  0.11761  0  0.968289  0  0  0.124754  0  1.032592  0  0  0.129091  0  1.030303  0  0  0.111537  0.121652  0  1.034395  0
H  H10  1  0.45157658  0.98949355  0.27101760  1  0  0.093612  0  0.95529  0  0  0.105608  0  1.014781  0  0  0.108071  0  1.013514  0  0  0.104567  0.103835  0  1.015645  0
H  H11  1  0.54843052  0.01050358  0.72899139  1  0  0.093589  0  0.955364  0  0  0.10561  0  1.014834  0  0  0.108067  0  1.013566  0  0  0.10458  0.103838  0  1.015697  0
H  H12  1  0.73316487  0.10790332  0.34540880  1  0  0.112166  0  0.950059  0  0  0.120064  0  1.013235  0  0  0.123388  0  1.011036  0  0  0.109349  0.11772  0  1.014916  0
H  H13  1  0.26684256  0.89209892  0.65458210  1  0  0.112237  0  0.950087  0  0  0.120067  0  1.013328  0  0  0.123435  0  1.011078  0  0  0.109337  0.117697  0  1.015037  0
H  H14  1  0.74558208  0.86104797  0.42816753  1  0  0.115173  0  0.955403  0  0  0.124168  0  1.018969  0  0  0.127686  0  1.017762  0  0  0.10559  0.121754  0  1.019771  0
H  H15  1  0.25441712  0.13895028  0.57182182  1  0  0.115168  0  0.955504  0  0  0.124163  0  1.019077  0  0  0.127683  0  1.017864  0  0  0.105581  0.121749  0  1.019878  0
H  H16  1  0.42535769  0.34724340  0.10439277  1  0  0.109144  0  0.94395  0  0  0.118918  0  1.003673  0  0  0.122242  0  1.00133  0  0  0.110857  0.116492  0  1.005468  0
H  H17  1  0.57463617  0.65277219  0.89561136  1  0  0.109354  0  0.943965  0  0  0.119091  0  1.0037  0  0  0.122421  0  1.001342  0  0  0.110906  0.116644  0  1.005518  0
H  H18  1  0.45587780  0.41684030  0.86450031  1  0  0.116272  0  0.954857  0  0  0.125557  0  1.017764  0  0  0.129232  0  1.016098  0  0  0.112935  0.122927  0  1.01899  0
H  H19  1  0.54411221  0.58316821  0.13549563  1  0  0.116391  0  0.954873  0  0  0.125716  0  1.017693  0  0  0.129401  0  1.016021  0  0  0.112943  0.12308  0  1.018934  0
H  H20  1  0.86172066  0.28119099  0.81047844  1  0  0.110409  0  0.987263  0  0  0.119167  0  1.049475  0  0  0.122035  0  1.049473  0  0  0.105758  0.117145  0  1.049638  0
H  H21  1  0.13828000  0.71879806  0.18952918  1  0  0.11055  0  0.987234  0  0  0.119295  0  1.049484  0  0  0.122168  0  1.04947  0  0  0.105798  0.117274  0  1.049645  0
H  H22  1  0.83099642  0.21304936  0.04607943  1  0  0.099476  0  0.940695  0  0  0.112181  0  0.996984  0  0  0.11471  0  0.995733  0  0  0.108519  0.110479  0  0.997521  0
H  H23  1  0.16900416  0.78694783  0.95393243  1  0  0.099523  0  0.940718  0  0  0.112182  0  0.997043  0  0  0.11472  0  0.995783  0  0  0.108525  0.110482  0  0.99758  0
C  C24  1  0.10299429  0.78648850  0.39460869  1  0  0.364428  0  3.87583  0  0  0.351137  0  4.138549  0  0  0.36656  0  4.152379  0  0  0.086439  0.340138  0  4.129752  0
C  C25  1  0.89701064  0.21350461  0.60538476  1  0  0.364369  0  3.875841  0  0  0.350982  0  4.138688  0  0  0.366398  0  4.152523  0  0  0.086388  0.339984  0  4.129892  0
C  C26  1  0.30325798  0.82414934  0.35066094  1  0  -0.201939  0  3.708909  0  0  -0.215554  0  3.957871  0  0  -0.224191  0  3.97671  0  0  -0.098518  -0.209813  0  3.945497  0
C  C27  1  0.69674653  0.17585599  0.64933194  1  0  -0.201839  0  3.708636  0  0  -0.215411  0  3.957612  0  0  -0.224033  0  3.97645  0  0  -0.098482  -0.209673  0  3.945239  0
C  C28  1  0.29711679  0.96094063  0.30494751  1  0  -0.037628  0  3.781187  0  0  -0.059919  0  4.023012  0  0  -0.055931  0  4.043131  0  0  -0.083735  -0.062318  0  4.009033  0
C  C29  1  0.70288318  0.03905659  0.69504953  1  0  -0.037667  0  3.780933  0  0  -0.059962  0  4.022836  0  0  -0.055969  0  4.042941  0  0  -0.083804  -0.062354  0  4.008847  0
C  C30  1  0.09168163  0.06227061  0.30342435  1  0  -0.16997  0  3.820514  0  0  -0.145211  0  4.072285  0  0  -0.15657  0  4.098291  0  0  -0.041093  -0.137428  0  4.054538  0
C  C31  1  0.90832063  0.93773169  0.69656198  1  0  -0.169925  0  3.82047  0  0  -0.145314  0  4.072463  0  0  -0.156671  0  4.09848  0  0  -0.041068  -0.137532  0  4.05471  0
C  C32  1  0.89066462  0.02779012  0.34536718  1  0  -0.041618  0  3.770996  0  0  -0.064054  0  4.019035  0  0  -0.060267  0  4.039441  0  0  -0.082058  -0.066588  0  4.005031  0
C  C33  1  0.10933573  0.97220915  0.65462095  1  0  -0.041778  0  3.771064  0  0  -0.064118  0  4.019127  0  0  -0.060372  0  4.039518  0  0  -0.082106  -0.066632  0  4.005135  0
C  C34  1  0.89734099  0.89062933  0.39071171  1  0  -0.200364  0  3.7074  0  0  -0.220603  0  3.965539  0  0  -0.229865  0  3.986432  0  0  -0.106975  -0.214264  0  3.951378  0
C  C35  1  0.10266661  0.10937598  0.60927557  1  0  -0.200257  0  3.707433  0  0  -0.220464  0  3.965542  0  0  -0.229725  0  3.986449  0  0  -0.106856  -0.214122  0  3.95137  0
C  C36  1  0.12602977  0.27710804  0.08860486  1  0  -0.155637  0  3.804111  0  0  -0.135648  0  4.062186  0  0  -0.145344  0  4.086952  0  0  -0.038627  -0.129202  0  4.045463  0
C  C37  1  0.87396994  0.72289426  0.91140006  1  0  -0.155611  0  3.804375  0  0  -0.13554  0  4.062298  0  0  -0.145233  0  4.087066  0  0  -0.038642  -0.129097  0  4.045577  0
C  C38  1  0.30355067  0.33314835  0.03892349  1  0  -0.043639  0  3.767577  0  0  -0.066462  0  4.016386  0  0  -0.063322  0  4.036398  0  0  -0.081754  -0.068459  0  4.002808  0
C  C39  1  0.69645693  0.66684575  0.96106502  1  0  -0.043882  0  3.767117  0  0  -0.066713  0  4.015906  0  0  -0.06358  0  4.035914  0  0  -0.081859  -0.068689  0  4.002339  0
C  C40  1  0.32086906  0.37157211  0.90598412  1  0  -0.187783  0  3.706157  0  0  -0.20784  0  3.95797  0  0  -0.215724  0  3.97803  0  0  -0.094831  -0.202658  0  3.944501  0
C  C41  1  0.67913500  0.62841690  0.09402531  1  0  -0.187814  0  3.706109  0  0  -0.20789  0  3.957775  0  0  -0.215787  0  3.977846  0  0  -0.094658  -0.202711  0  3.944302  0
C  C42  1  0.16111499  0.35405634  0.82256449  1  0  0.366631  0  3.796411  0  0  0.358459  0  4.052413  0  0  0.372405  0  4.06688  0  0  0.097923  0.348927  0  4.042643  0
C  C43  1  0.83885491  0.64594930  0.17743443  1  0  0.366452  0  3.797146  0  0  0.358381  0  4.053006  0  0  0.37232  0  4.067483  0  0  0.097783  0.348854  0  4.043231  0
C  C44  1  0.98494012  0.29609125  0.87406585  1  0  -0.202488  0  3.72892  0  0  -0.218074  0  3.971819  0  0  -0.226105  0  3.992482  0  0  -0.102448  -0.21293  0  3.957867  0
C  C45  1  0.01503215  0.70391841  0.12595324  1  0  -0.202611  0  3.72845  0  0  -0.218295  0  3.971398  0  0  -0.22632  0  3.992055  0  0  -0.102474  -0.213154  0  3.957447  0
C  C46  1  0.96769091  0.25790165  0.00659492  1  0  -0.037838  0  3.779189  0  0  -0.059249  0  4.022685  0  0  -0.055983  0  4.042527  0  0  -0.082307  -0.060828  0  4.008452  0
C  C47  1  0.03229345  0.74211201  0.99339877  1  0  -0.037753  0  3.778795  0  0  -0.059115  0  4.022268  0  0  -0.05586  0  4.04211  0  0  -0.082228  -0.06069  0  4.00803  0
S  S48  1  0.09304067  0.23398724  0.25580188  1  0  1.109645  0  5.225712  0  0  1.033375  0  5.718149  0  0  1.072693  0  5.705585  0  0  0.490351  1.005603  0  5.727208  0
S  S49  1  0.90696915  0.76600375  0.74420783  1  0  1.109495  0  5.225789  0  0  1.033213  0  5.718257  0  0  1.072529  0  5.705699  0  0  0.490289  1.005441  0  5.72732  0
O  O50  1  0.10714252  0.65433191  0.43786312  1  0  -0.737912  0  2.060459  0  0  -0.672133  0  2.282318  0  0  -0.693787  0  2.272082  0  0  -0.408884  -0.656246  0  2.28962  0
O  O51  1  0.89286175  0.34566323  0.56213628  1  0  -0.737938  0  2.060438  0  0  -0.672123  0  2.282329  0  0  -0.693779  0  2.272105  0  0  -0.408895  -0.656232  0  2.289629  0
O  O52  1  0.57373810  0.53781203  0.63525713  1  0  -0.919597  0  1.761235  0  0  -0.877783  0  1.934645  0  0  -0.892923  0  1.90263  0  0  -0.672541  -0.866944  0  1.958017  0
O  O53  1  0.42624983  0.46218732  0.36475156  1  0  -0.919585  0  1.761302  0  0  -0.877793  0  1.934695  0  0  -0.892928  0  1.902689  0  0  -0.672598  -0.866961  0  1.958053  0
O  O54  1  0.18164484  0.39520854  0.69339311  1  0  -0.610098  0  2.147125  0  0  -0.555608  0  2.371513  0  0  -0.574568  0  2.358565  0  0  -0.400229  -0.541976  0  2.379477  0
O  O55  1  0.81835647  0.60479782  0.30661344  1  0  -0.610091  0  2.147329  0  0  -0.555605  0  2.371669  0  0  -0.574564  0  2.358697  0  0  -0.400236  -0.541969  0  2.379628  0
O  O56  1  0.29397960  0.24752363  0.31993129  1  0  -0.607391  0  1.973116  0  0  -0.551944  0  2.21319  0  0  -0.571629  0  2.20055  0  0  -0.296623  -0.537673  0  2.221887  0
O  O57  1  0.70603182  0.75247449  0.68007274  1  0  -0.60725  0  1.973127  0  0  -0.5518  0  2.21321  0  0  -0.571493  0  2.20058  0  0  -0.296514  -0.537525  0  2.221895  0
O  O58  1  0.86542371  0.31465982  0.27669613  1  0  -0.664147  0  1.994756  0  0  -0.621386  0  2.258373  0  0  -0.639894  0  2.245982  0  0  -0.372524  -0.608198  0  2.267319  0
O  O59  1  0.13458885  0.68534031  0.72331659  1  0  -0.664131  0  1.994975  0  0  -0.62131  0  2.258553  0  0  -0.63982  0  2.246167  0  0  -0.37251  -0.608119  0  2.267496  0
