# generated using pymatgen
data_ZnH2C7SN3O11
_symmetry_space_group_name_H-M   'P 1'
_cell_length_a   10.38010667
_cell_length_b   10.46007952
_cell_length_c   11.44110755
_cell_angle_alpha   87.48847366
_cell_angle_beta   75.88217783
_cell_angle_gamma   84.67615198
_symmetry_Int_Tables_number   1
_chemical_formula_structural   ZnH2C7SN3O11
_chemical_formula_sum   'Zn2 H4 C14 S2 N6 O22'
_cell_volume   1199.23207411
_cell_formula_units_Z   2
loop_
 _symmetry_equiv_pos_site_id
 _symmetry_equiv_pos_as_xyz
  1  'x, y, z'
loop_
 _atom_site_type_symbol
 _atom_site_label
 _atom_site_symmetry_multiplicity
 _atom_site_fract_x
 _atom_site_fract_y
 _atom_site_fract_z
 _atom_site_occupancy
 _atom_site_pbe_bader_charge
 _atom_site_pbe_bader_spin_density
 _atom_site_pbe_cm5_charge
 _atom_site_pbe_ddec_charge
 _atom_site_pbe_ddec_spin_density
 _atom_site_pbe_ddec_sum_bond_order
 _atom_site_pbe_magmom
Zn  Zn0  1  0.70527317  0.48673973  0.46919589  1  1.287356  0  0.706022  0.873839  0  2.308929  0
Zn  Zn1  1  0.39927732  0.50478975  0.53411172  1  1.342487  0  0.702791  0.901137  0  2.357963  0
H  H2  1  0.36128899  0.14555697  0.54487980  1  0.190032  0  0.117272  0.131671  0  1.029873  0
H  H3  1  0.48457881  0.86587315  0.48523085  1  0.180904  0  0.117678  0.134602  0  1.019825  0
H  H4  1  0.77980532  0.18461015  0.33383712  1  0.646308  0  0.319161  0.381832  0  0.920203  0
H  H5  1  0.96101328  0.98168619  0.50540398  1  0.684198  0  0.318175  0.398712  0  0.924221  0
C  C6  1  0.26823025  0.75694678  0.53994946  1  1.630508  0  0.209131  0.607067  0  4.199455  0
C  C7  1  0.57733195  0.25336207  0.49304149  1  1.59268  0  0.229281  0.640927  0  4.126252  0
C  C8  1  0.57571593  0.54299514  0.28746149  1  1.687828  0  0.234949  0.675679  0  4.211121  0
C  C9  1  0.55142374  0.54244054  0.71445000  1  1.657312  0  0.239219  0.675508  0  4.215069  0
C  C10  1  0.57676327  0.56661773  0.16293922  1  0.269912  0  -0.002946  -0.133759  0  3.832823  0
C  C11  1  0.55959686  0.56048267  0.83617075  1  0.274264  0  0.004569  -0.116715  0  3.819923  0
C  C12  1  0.57155573  0.57041351  0.05717408  1  -0.394032  0  0.009571  0.053239  0  4.200837  0
C  C13  1  0.56524822  0.56830144  0.94107714  1  -0.281976  0  0.006401  0.040332  0  4.201103  0
C  C14  1  0.28034182  0.90077631  0.53899828  1  -0.110678  0  0.008814  -0.168288  0  3.712584  0
C  C15  1  0.56513650  0.11328433  0.47971521  1  -0.181724  0  -0.015245  -0.247499  0  3.811245  0
C  C16  1  0.40479332  0.94224086  0.51063150  1  -0.015386  0  -0.058723  -0.031433  0  3.905683  0
C  C17  1  0.44106064  0.07111740  0.51239003  1  0.004491  0  -0.04436  0.021274  0  3.893553  0
C  C18  1  0.14278522  0.43092474  0.46095321  1  0.96585  0  0.252633  0.191276  0  3.865423  0
C  C19  1  0.99891267  0.42735696  0.46714440  1  0.98585  0  0.254872  0.192461  0  3.96746  0
S  S20  1  0.71541352  0.01477853  0.42237323  1  3.111992  0  0.547362  1.18681  0  5.980201  0
S  S21  1  0.12882940  0.00176086  0.58592461  1  3.117853  0  0.540523  1.200058  0  5.978284  0
N  N22  1  0.20130317  0.45807486  0.54054745  1  -0.83607  0  -0.204935  -0.266294  0  3.128108  0
N  N23  1  0.91029158  0.51111229  0.44753917  1  -0.886686  0  -0.229321  -0.307064  0  3.096085  0
N  N24  1  0.95728779  0.28984468  0.48140729  1  0.510256  0  0.066382  0.456892  0  4.24428  0
N  N25  1  0.23079913  0.39258686  0.33556239  1  0.525136  0  0.07895  0.469291  0  4.238828  0
N  N26  1  0.94697120  0.66390207  0.44193018  1  0.78668  0  0.163651  0.584334  0  4.164235  0
N  N27  1  0.10525717  0.47517772  0.67523394  1  0.753422  0  0.159398  0.592288  0  4.187654  0
O  O28  1  0.38075587  0.69165698  0.49964787  1  -1.159711  0  -0.329654  -0.558684  0  2.349313  0
O  O29  1  0.47749858  0.31818346  0.55421139  1  -1.164815  0  -0.296493  -0.525259  0  2.345128  0
O  O30  1  0.15797773  0.71209946  0.57881363  1  -1.11522  0  -0.310675  -0.528596  0  2.140502  0
O  O31  1  0.68929218  0.29997096  0.44055250  1  -1.164162  0  -0.315035  -0.576064  0  2.354107  0
O  O32  1  0.67547156  0.57518432  0.32445983  1  -1.118653  0  -0.308527  -0.515321  0  2.257268  0
O  O33  1  0.43696301  0.54247203  0.69501093  1  -1.117741  0  -0.285525  -0.504609  0  2.306169  0
O  O34  1  0.47796730  0.48713103  0.35059651  1  -1.147322  0  -0.302157  -0.549273  0  2.343583  0
O  O35  1  0.66451445  0.52669282  0.63726452  1  -1.134658  0  -0.313086  -0.546295  0  2.356912  0
O  O36  1  0.79383269  0.01602350  0.51144391  1  -1.300266  0  -0.305229  -0.557008  0  2.240743  0
O  O37  1  0.69106309  0.89383479  0.38137483  1  -1.285331  0  -0.294491  -0.499983  0  2.145252  0
O  O38  1  0.78104781  0.09485654  0.30580309  1  -1.213021  0  -0.350119  -0.501302  0  2.154916  0
O  O39  1  0.05687340  0.96111317  0.70329626  1  -1.266959  0  -0.309814  -0.510398  0  2.07729  0
O  O40  1  0.15858724  0.13508139  0.56848991  1  -1.319319  0  -0.336986  -0.585502  0  2.223021  0
O  O41  1  0.06090997  0.96538984  0.48378445  1  -1.259925  0  -0.361705  -0.556215  0  2.266952  0
O  O42  1  0.99306184  0.22967613  0.38729793  1  -0.38244  0  -0.073403  -0.240718  0  1.953939  0
O  O43  1  0.89408827  0.25699016  0.58077512  1  -0.356053  0  -0.049756  -0.201616  0  1.974836  0
O  O44  1  0.30634856  0.29578001  0.33370916  1  -0.35707  0  -0.055244  -0.209853  0  1.949818  0
O  O45  1  0.21210806  0.46430551  0.25270706  1  -0.357864  0  -0.068374  -0.237889  0  1.916988  0
O  O46  1  0.03121663  0.69252658  0.35533900  1  -0.31813  0  -0.015404  -0.178838  0  1.966265  0
O  O47  1  0.87573915  0.72005215  0.52574662  1  -0.304772  0  -3e-06  -0.157104  0  1.99972  0
O  O48  1  0.17021492  0.46529603  0.74931932  1  -0.324681  0  -0.015077  -0.179033  0  1.960146  0
O  O49  1  0.98675384  0.48969073  0.68251309  1  -0.330656  0  -0.034519  -0.218615  0  2.022012  0
