# generated using pymatgen
data_AgH19C25(N2O)3
_symmetry_space_group_name_H-M   'P 1'
_cell_length_a   7.10655482
_cell_length_b   12.96678778
_cell_length_c   13.28590000
_cell_angle_alpha   67.84955918
_cell_angle_beta   82.40051477
_cell_angle_gamma   76.66837922
_symmetry_Int_Tables_number   1
_chemical_formula_structural   AgH19C25(N2O)3
_chemical_formula_sum   'Ag2 H38 C50 N12 O6'
_cell_volume   1101.97653728
_cell_formula_units_Z   2
loop_
 _symmetry_equiv_pos_site_id
 _symmetry_equiv_pos_as_xyz
  1  'x, y, z'
loop_
 _atom_site_type_symbol
 _atom_site_label
 _atom_site_symmetry_multiplicity
 _atom_site_fract_x
 _atom_site_fract_y
 _atom_site_fract_z
 _atom_site_occupancy
 _atom_site_hle17_bader_spin_density
 _atom_site_hle17_ddec_charge
 _atom_site_hle17_ddec_spin_density
 _atom_site_hle17_ddec_sum_bond_order
 _atom_site_hle17_magmom
 _atom_site_hse06_10hf_bader_spin_density
 _atom_site_hse06_10hf_ddec_charge
 _atom_site_hse06_10hf_ddec_spin_density
 _atom_site_hse06_10hf_ddec_sum_bond_order
 _atom_site_hse06_10hf_magmom
 _atom_site_hse06_bader_spin_density
 _atom_site_hse06_ddec_charge
 _atom_site_hse06_ddec_spin_density
 _atom_site_hse06_ddec_sum_bond_order
 _atom_site_hse06_magmom
 _atom_site_pbe_bader_charge
 _atom_site_pbe_bader_spin_density
 _atom_site_pbe_cm5_charge
 _atom_site_pbe_ddec_charge
 _atom_site_pbe_ddec_spin_density
 _atom_site_pbe_ddec_sum_bond_order
 _atom_site_pbe_magmom
Ag  Ag0  1  0.71863755  0.05005095  0.39466640  1  0  0.544674  0  1.342571  0  0  0.393659  0  1.769342  0  0  0.425216  0  1.725594  0  0.591409  0  0.458792  0.372045  0  1.799461  0
Ag  Ag1  1  0.28136169  0.94994968  0.60533274  1  0  0.54468  0  1.342595  0  0  0.393672  0  1.769356  0  0  0.425232  0  1.725609  0  0.591414  0  0.458789  0.372053  0  1.799471  0
H  H2  1  0.87551791  0.01505078  0.74085791  1  0  0.36566  0  0.934917  0  0  0.336124  0  1.014739  0  0  0.349281  0  1.001838  0  0.635837  0  0.285276  0.326949  0  1.023492  0
H  H3  1  0.12448246  0.98495069  0.25914160  1  0  0.365671  0  0.934922  0  0  0.336138  0  1.014733  0  0  0.349295  0  1.001832  0  0.635916  0  0.285276  0.326964  0  1.023486  0
H  H4  1  0.94788133  0.80337653  0.01181437  1  0  0.108621  0  0.978881  0  0  0.11867  0  1.039642  0  0  0.121175  0  1.040787  0  0.105359  0  0.099395  0.116913  0  1.038975  0
H  H5  1  0.05212245  0.19662325  0.98818627  1  0  0.108617  0  0.978903  0  0  0.118656  0  1.039669  0  0  0.121161  0  1.040814  0  0.105323  0  0.099394  0.116898  0  1.039003  0
H  H6  1  0.87649936  0.61203064  0.04825342  1  0  0.099706  0  0.953394  0  0  0.11106  0  1.014609  0  0  0.113184  0  1.013385  0  0.058178  0  0.105429  0.10955  0  1.015458  0
H  H7  1  0.12350243  0.38797084  0.95174523  1  0  0.099666  0  0.953455  0  0  0.111051  0  1.014631  0  0  0.113175  0  1.013406  0  0.058154  0  0.105425  0.109541  0  1.01548  0
H  H8  1  0.70822748  0.72182781  0.71864144  1  0  0.107607  0  0.956729  0  0  0.110065  0  1.032487  0  0  0.114231  0  1.028195  0  0.099107  0  0.104193  0.107101  0  1.035504  0
H  H9  1  0.29177176  0.27817282  0.28135846  1  0  0.107599  0  0.956751  0  0  0.11005  0  1.032516  0  0  0.114218  0  1.028221  0  0.09909  0  0.104185  0.107087  0  1.035533  0
H  H10  1  0.89851311  0.38747146  0.71799952  1  0  0.097424  0  0.995289  0  0  0.092844  0  1.083197  0  0  0.097918  0  1.078744  0  0.127367  0  0.095604  0.089271  0  1.086355  0
H  H11  1  0.10148812  0.61252747  0.28200237  1  0  0.097448  0  0.995251  0  0  0.092862  0  1.08317  0  0  0.097937  0  1.078718  0  0.127348  0  0.095609  0.089289  0  1.086328  0
H  H12  1  0.89579776  0.18017627  0.77160575  1  0  0.0927  0  0.957388  0  0  0.105939  0  1.012609  0  0  0.108743  0  1.011731  0  0.08635  0  0.100023  0.103869  0  1.013425  0
H  H13  1  0.10419864  0.81982436  0.22839585  1  0  0.092682  0  0.957358  0  0  0.105924  0  1.012572  0  0  0.10873  0  1.011692  0  0.086306  0  0.100012  0.103854  0  1.013389  0
H  H14  1  0.72791453  0.07952915  0.94306978  1  0  0.091782  0  0.955056  0  0  0.102829  0  1.013462  0  0  0.106636  0  1.010865  0  0.068804  0  0.09822  0.100076  0  1.015402  0
H  H15  1  0.27208329  0.92047148  0.05693097  1  0  0.09177  0  0.955036  0  0  0.102823  0  1.013441  0  0  0.106629  0  1.010845  0  0.068788  0  0.098215  0.100069  0  1.015382  0
H  H16  1  0.55301706  0.18558782  0.06313184  1  0  0.077714  0  0.975372  0  0  0.088425  0  1.039141  0  0  0.09024  0  1.040102  0  0.060336  0  0.093166  0.087059  0  1.038649  0
H  H17  1  0.44698105  0.81441195  0.93686920  1  0  0.077747  0  0.975357  0  0  0.088454  0  1.039125  0  0  0.090269  0  1.040086  0  0.060365  0  0.093188  0.08709  0  1.038634  0
H  H18  1  0.56700572  0.38998106  0.01207965  1  0  0.095252  0  0.984894  0  0  0.098807  0  1.059938  0  0  0.101689  0  1.058061  0  0.080958  0  0.099877  0.096672  0  1.061465  0
H  H19  1  0.43299494  0.61001957  0.98792090  1  0  0.095279  0  0.984874  0  0  0.098834  0  1.05992  0  0  0.101717  0  1.058043  0  0.080983  0  0.099889  0.096699  0  1.061448  0
H  H20  1  0.64331120  0.80678295  0.50099074  1  0  0.095639  0  0.960963  0  0  0.101751  0  1.031719  0  0  0.104936  0  1.028422  0  0.138204  0  0.116827  0.099341  0  1.034254  0
H  H21  1  0.35668662  0.19321768  0.49900851  1  0  0.09564  0  0.960949  0  0  0.101735  0  1.031719  0  0  0.104919  0  1.028422  0  0.138191  0  0.116817  0.099324  0  1.034254  0
H  H22  1  0.56162505  0.68227386  0.25345726  1  0  0.105597  0  0.944979  0  0  0.115521  0  1.006552  0  0  0.117813  0  1.005477  0  0.102362  0  0.112077  0.113822  0  1.007421  0
H  H23  1  0.43837447  0.31772592  0.74654293  1  0  0.105609  0  0.944981  0  0  0.115533  0  1.006549  0  0  0.117825  0  1.005474  0  0.10238  0  0.112072  0.113833  0  1.007419  0
H  H24  1  0.64583601  0.86243229  0.11397652  1  0  0.101489  0  0.954569  0  0  0.115309  0  1.008638  0  0  0.117511  0  1.00952  0  0.107859  0  0.107883  0.113728  0  1.008181  0
H  H25  1  0.35416210  0.13756749  0.88602302  1  0  0.10152  0  0.954556  0  0  0.115326  0  1.00864  0  0  0.117529  0  1.009517  0  0.107871  0  0.107881  0.113745  0  1.008184  0
H  H26  1  0.73144294  0.00373340  0.17795707  1  0  0.076993  0  0.951386  0  0  0.084973  0  1.020606  0  0  0.087695  0  1.017541  0  0.11024  0  0.114279  0.08296  0  1.022836  0
H  H27  1  0.26855488  0.99626723  0.82204293  1  0  0.076957  0  0.95141  0  0  0.084937  0  1.020634  0  0  0.08766  0  1.017569  0  0.110236  0  0.114263  0.082925  0  1.022864  0
H  H28  1  0.58589711  0.61330880  0.55893738  1  0  0.078792  0  0.913185  0  0  0.087689  0  0.979725  0  0  0.090896  0  0.976441  0  0.112751  0  0.117637  0.085251  0  0.982225  0
H  H29  1  0.41409901  0.38669268  0.44106317  1  0  0.078794  0  0.913214  0  0  0.087692  0  0.97973  0  0  0.090901  0  0.97645  0  0.112762  0  0.117629  0.085255  0  0.982231  0
H  H30  1  0.86538752  0.18906049  0.50160337  1  0  0.100206  0  0.958822  0  0  0.105838  0  1.028731  0  0  0.10979  0  1.02463  0  0.16319  0  0.116154  0.102867  0  1.031868  0
H  H31  1  0.13460264  0.81093759  0.49839510  1  0  0.100229  0  0.95879  0  0  0.105848  0  1.028709  0  0  0.1098  0  1.02461  0  0.162809  0  0.116171  0.102878  0  1.031845  0
H  H32  1  0.85103576  0.52925728  0.26603768  1  0  0.098857  0  0.948933  0  0  0.107228  0  1.016761  0  0  0.110053  0  1.013764  0  0.134949  0  0.111012  0.105107  0  1.01909  0
H  H33  1  0.14896291  0.47074080  0.73396245  1  0  0.098887  0  0.948863  0  0  0.107237  0  1.016725  0  0  0.110062  0  1.013729  0  0.134955  0  0.110997  0.105116  0  1.019052  0
H  H34  1  0.72289347  0.46630166  0.13344605  1  0  0.105344  0  0.967369  0  0  0.107973  0  1.041339  0  0  0.111122  0  1.040391  0  0.114726  0  0.10518  0.105604  0  1.042326  0
H  H35  1  0.27711145  0.53369897  0.86655194  1  0  0.105352  0  0.967332  0  0  0.107979  0  1.041313  0  0  0.111128  0  1.040366  0  0.114752  0  0.105185  0.10561  0  1.042301  0
H  H36  1  0.67195131  0.26836119  0.19571934  1  0  0.073592  0  0.946789  0  0  0.084265  0  1.0126  0  0  0.086118  0  1.011023  0  0.080231  0  0.114107  0.082858  0  1.013822  0
H  H37  1  0.32805134  0.73163774  0.80427718  1  0  0.073587  0  0.946791  0  0  0.084269  0  1.012576  0  0  0.086128  0  1.010994  0  0.080296  0  0.114105  0.082863  0  1.013799  0
H  H38  1  0.96292573  0.32722587  0.55675443  1  0  0.073938  0  0.924205  0  0  0.08604  0  0.987175  0  0  0.088951  0  0.984367  0  0.08686  0  0.118245  0.083891  0  0.989208  0
H  H39  1  0.03706669  0.67277391  0.44324551  1  0  0.073889  0  0.92414  0  0  0.085991  0  0.987127  0  0  0.088891  0  0.984335  0  0.086868  0  0.118222  0.083843  0  0.989157  0
C  C40  1  0.76699392  0.93763270  0.65106836  1  0  0.644751  0  3.933434  0  0  0.591657  0  4.230227  0  0  0.626762  0  4.223388  0  1.552725  0  0.192758  0.567892  0  4.234045  0
C  C41  1  0.23300929  0.06236877  0.34893170  1  0  0.644768  0  3.933333  0  0  0.591658  0  4.230152  0  0  0.626763  0  4.223315  0  1.552728  0  0.192778  0.567893  0  4.233972  0
C  C42  1  0.79355150  0.84745964  0.76178997  1  0  -0.21961  0  3.788011  0  0  -0.197935  0  4.026534  0  0  -0.213646  0  4.051972  0  -0.029286  0  -0.04373  -0.187584  0  4.009324  0
C  C43  1  0.20645030  0.15254184  0.23821019  1  0  -0.219596  0  3.788019  0  0  -0.197933  0  4.026576  0  0  -0.213641  0  4.052012  0  -0.029274  0  -0.043727  -0.187578  0  4.00936  0
C  C44  1  0.86553302  0.87006469  0.84519674  1  0  0.339682  0  3.8116  0  0  0.326028  0  4.068836  0  0  0.342284  0  4.083497  0  0.556404  0  0.092516  0.314988  0  4.058634  0
C  C45  1  0.13447019  0.12993679  0.15480256  1  0  0.339695  0  3.811575  0  0  0.326039  0  4.068816  0  0  0.342295  0  4.083476  0  0.556396  0  0.092485  0.314998  0  4.058616  0
C  C46  1  0.89175327  0.78511805  0.94925377  1  0  -0.202696  0  3.752187  0  0  -0.218996  0  4.003191  0  0  -0.228389  0  4.024612  0  0.024411  0  -0.111298  -0.212748  0  3.988715  0
C  C47  1  0.10825023  0.21488258  0.05074583  1  0  -0.202741  0  3.752396  0  0  -0.219036  0  4.003425  0  0  -0.228431  0  4.024848  0  0.024477  0  -0.11134  -0.212788  0  3.98895  0
C  C48  1  0.85229205  0.67947041  0.96908663  1  0  -0.075065  0  3.732015  0  0  -0.102614  0  3.989152  0  0  -0.099457  0  4.008987  0  -0.089648  0  -0.076821  -0.104366  0  3.97546  0
C  C49  1  0.14771287  0.32053021  0.03091212  1  0  -0.074987  0  3.732265  0  0  -0.102552  0  3.989379  0  0  -0.099393  0  4.009212  0  -0.08966  0  -0.076779  -0.104304  0  3.975686  0
C  C50  1  0.78922076  0.65459611  0.88602234  1  0  0.108542  0  3.861712  0  0  0.114054  0  4.116276  0  0  0.107873  0  4.143043  0  0.317354  0  0.066907  0.118046  0  4.098085  0
C  C51  1  0.21078104  0.34540537  0.11397631  1  0  0.108484  0  3.861855  0  0  0.113991  0  4.116442  0  0  0.107812  0  4.143208  0  0.317599  0  0.066913  0.117982  0  4.098251  0
C  C52  1  0.75824257  0.73993003  0.78309872  1  0  -0.100363  0  3.733261  0  0  -0.132137  0  3.983696  0  0  -0.128531  0  4.004618  0  0.010646  0  -0.080254  -0.134137  0  3.969307  0
C  C53  1  0.24176064  0.26007145  0.21690059  1  0  -0.100309  0  3.733233  0  0  -0.132071  0  3.983667  0  0  -0.128466  0  4.004589  0  0.010363  0  -0.080221  -0.134071  0  3.969277  0
C  C54  1  0.74018705  0.39835487  0.86472949  1  0  0.155527  0  3.831981  0  0  0.165537  0  4.07405  0  0  0.165604  0  4.098621  0  0.321879  0  0.080443  0.165355  0  4.057457  0
C  C55  1  0.25981077  0.60164575  0.13527202  1  0  0.155521  0  3.831958  0  0  0.16553  0  4.074036  0  0  0.165597  0  4.098607  0  0.321916  0  0.080451  0.165347  0  4.057441  0
C  C56  1  0.82673001  0.34102822  0.79420619  1  0  -0.134405  0  3.711343  0  0  -0.154511  0  3.963264  0  0  -0.157439  0  3.982116  0  -0.056676  0  -0.089279  -0.152348  0  3.950369  0
C  C57  1  0.17327094  0.65897156  0.20579540  1  0  -0.134462  0  3.711331  0  0  -0.154579  0  3.963261  0  0  -0.157507  0  3.982111  0  -0.056693  0  -0.089305  -0.152421  0  3.950381  0
C  C58  1  0.82396923  0.22617110  0.82423807  1  0  -0.066882  0  3.776375  0  0  -0.079434  0  4.024345  0  0  -0.080757  0  4.044819  0  -0.144483  0  -0.093997  -0.078477  0  4.010422  0
C  C59  1  0.17603172  0.77382868  0.17576352  1  0  -0.066844  0  3.776337  0  0  -0.079384  0  4.02429  0  0  -0.080706  0  4.044762  0  -0.144489  0  -0.094007  -0.078428  0  4.010365  0
C  C60  1  0.72879234  0.16920793  0.92174687  1  0  -0.072449  0  3.757751  0  0  -0.088839  0  4.00877  0  0  -0.089402  0  4.026832  0  -0.005118  0  -0.093814  -0.088408  0  3.996529  0
C  C61  1  0.27120719  0.83079185  0.07825483  1  0  -0.072456  0  3.757777  0  0  -0.088858  0  4.008803  0  0  -0.089421  0  4.026865  0  -0.005135  0  -0.093807  -0.088425  0  3.996561  0
C  C62  1  0.63366493  0.22827304  0.98896430  1  0  -0.074482  0  3.797476  0  0  -0.082736  0  4.040528  0  0  -0.085264  0  4.063359  0  -0.025382  0  -0.096564  -0.080974  0  4.0251  0
C  C63  1  0.36633289  0.77172759  0.01103721  1  0  -0.074454  0  3.797435  0  0  -0.082697  0  4.040478  0  0  -0.085225  0  4.063311  0  -0.025375  0  -0.096561  -0.080937  0  4.025051  0
C  C64  1  0.64026154  0.34224608  0.96123164  1  0  -0.140952  0  3.737178  0  0  -0.160712  0  3.981594  0  0  -0.164013  0  4.004844  0  -0.058312  0  -0.092242  -0.15846  0  3.966055  0
C  C65  1  0.35973940  0.65775370  0.03876995  1  0  -0.140998  0  3.737158  0  0  -0.16077  0  3.981588  0  0  -0.164072  0  4.004839  0  -0.058324  0  -0.092245  -0.158518  0  3.966049  0
C  C66  1  0.64229539  0.81497842  0.41619762  1  0  0.090783  0  3.640314  0  0  0.052795  0  3.885196  0  0  0.058379  0  3.904731  0  0.484082  0  0.053683  0.049247  0  3.871984  0
C  C67  1  0.35770272  0.18502136  0.58380192  1  0  0.090826  0  3.640278  0  0  0.052898  0  3.885187  0  0  0.058484  0  3.904724  0  0.483996  0  0.053753  0.049346  0  3.871973  0
C  C68  1  0.59833445  0.72936170  0.38827895  1  0  -0.001775  0  3.793808  0  0  0.018348  0  4.032231  0  0  0.01171  0  4.057084  0  -0.006226  0  -0.003831  0.022525  0  4.015447  0
C  C69  1  0.40166224  0.27063808  0.61172145  1  0  -0.00166  0  3.793683  0  0  0.01835  0  4.032249  0  0  0.011711  0  4.057103  0  -0.006082  0  -0.003811  0.022528  0  4.015464  0
C  C70  1  0.59738536  0.74687961  0.27728435  1  0  -0.020343  0  3.656435  0  0  -0.045374  0  3.896319  0  0  -0.041499  0  3.915261  0  0.027342  0  -0.053495  -0.047653  0  3.88344  0
C  C71  1  0.40261445  0.25311932  0.72271538  1  0  -0.020419  0  3.656501  0  0  -0.045413  0  3.896397  0  0  -0.04154  0  3.91535  0  0.027359  0  -0.053501  -0.047691  0  3.88352  0
C  C72  1  0.64315440  0.84654922  0.20063474  1  0  -0.115273  0  3.748445  0  0  -0.123486  0  3.991048  0  0  -0.132069  0  4.01531  0  -0.077517  0  -0.080435  -0.118055  0  3.974821  0
C  C73  1  0.35684541  0.15344971  0.79936499  1  0  -0.115292  0  3.748458  0  0  -0.123488  0  3.99105  0  0  -0.132071  0  4.015311  0  -0.077515  0  -0.080439  -0.118058  0  3.974825  0
C  C74  1  0.68836570  0.92633825  0.23556811  1  0  0.122087  0  3.697929  0  0  0.090317  0  3.945289  0  0  0.097558  0  3.964189  0  0.464163  0  0.049203  0.085602  0  3.932538  0
C  C75  1  0.31163240  0.07366153  0.76443143  1  0  0.122134  0  3.697938  0  0  0.090365  0  3.945299  0  0  0.097609  0  3.9642  0  0.464139  0  0.049221  0.085647  0  3.932546  0
C  C76  1  0.56213186  0.62542110  0.47466971  1  0  0.100595  0  3.689931  0  0  0.064131  0  3.957815  0  0  0.071603  0  3.972803  0  0.610675  0  0.07683  0.059276  0  3.947605  0
C  C77  1  0.43786624  0.37457868  0.52533058  1  0  0.100489  0  3.689884  0  0  0.064073  0  3.95777  0  0  0.07154  0  3.972766  0  0.610664  0  0.076802  0.059217  0  3.947562  0
C  C78  1  0.83827668  0.25376901  0.42081019  1  0  0.092632  0  3.632977  0  0  0.055117  0  3.874967  0  0  0.061076  0  3.894241  0  0.474193  0  0.053714  0.051294  0  3.861981  0
C  C79  1  0.16171916  0.74622907  0.57918863  1  0  0.092617  0  3.633307  0  0  0.055121  0  3.8753  0  0  0.061079  0  3.894576  0  0.474519  0  0.053715  0.05129  0  3.862321  0
C  C80  1  0.87248776  0.36383370  0.39303426  1  0  -0.00212  0  3.785471  0  0  0.020893  0  4.020616  0  0  0.014194  0  4.044614  0  0.02809  0  -0.002431  0.025077  0  4.00459  0
C  C81  1  0.12751063  0.63616523  0.60696481  1  0  -0.001968  0  3.785497  0  0  0.021042  0  4.020649  0  0  0.014348  0  4.044639  0  0.027802  0  -0.002385  0.025226  0  4.004622  0
C  C82  1  0.82854567  0.44303418  0.28831024  1  0  -0.007215  0  3.651831  0  0  -0.040678  0  3.906004  0  0  -0.034886  0  3.921517  0  -0.051627  0  -0.051714  -0.044428  0  3.895755  0
C  C83  1  0.17145726  0.55696390  0.71168808  1  0  -0.007322  0  3.651836  0  0  -0.040771  0  3.906021  0  0  -0.03498  0  3.921533  0  -0.0517  0  -0.051708  -0.04452  0  3.895772  0
C  C84  1  0.75600202  0.40911429  0.21625358  1  0  -0.112659  0  3.718575  0  0  -0.121455  0  3.968457  0  0  -0.130848  0  3.992756  0  -0.004861  0  -0.081811  -0.115507  0  3.952518  0
C  C85  1  0.24400034  0.59088549  0.78374415  1  0  -0.112594  0  3.718535  0  0  -0.121383  0  3.968409  0  0  -0.130775  0  3.992709  0  -0.004841  0  -0.081798  -0.115434  0  3.952471  0
C  C86  1  0.72718648  0.29808228  0.25033832  1  0  0.130244  0  3.687637  0  0  0.099262  0  3.932377  0  0  0.106557  0  3.952882  0  0.477731  0  0.048836  0.094502  0  3.918609  0
C  C87  1  0.27281446  0.70191750  0.74965800  1  0  0.130191  0  3.687762  0  0  0.099213  0  3.932516  0  0  0.106503  0  3.953023  0  0.477411  0  0.048796  0.094453  0  3.918737  0
C  C88  1  0.94169093  0.39284735  0.47526081  1  0  0.108172  0  3.661853  0  0  0.070164  0  3.924595  0  0  0.078355  0  3.938622  0  0.58847  0  0.080554  0.064721  0  3.915216  0
C  C89  1  0.05830292  0.60714818  0.52474060  1  0  0.108118  0  3.662106  0  0  0.07009  0  3.924908  0  0  0.078283  0  3.938928  0  0.588793  0  0.080533  0.064648  0  3.915525  0
N  N90  1  0.76589924  0.54262481  0.91348494  1  0  -0.159906  0  3.056796  0  0  -0.130455  0  3.342796  0  0  -0.128179  0  3.351146  0  -0.517252  0  -0.152836  -0.131625  0  3.336853  0
N  N91  1  0.23410113  0.45737667  0.08651532  1  0  -0.159917  0  3.056833  0  0  -0.130472  0  3.342846  0  0  -0.128198  0  3.351197  0  -0.517222  0  -0.15286  -0.131642  0  3.336903  0
N  N92  1  0.76267743  0.51191007  0.83342278  1  0  -0.173881  0  3.001859  0  0  -0.15237  0  3.287696  0  0  -0.15244  0  3.295576  0  -0.502213  0  -0.161951  -0.15175  0  3.281979  0
N  N93  1  0.23732181  0.48809056  0.16657787  1  0  -0.173864  0  3.001828  0  0  -0.152343  0  3.287657  0  0  -0.152414  0  3.295538  0  -0.502249  0  -0.161952  -0.151722  0  3.281939  0
N  N94  1  0.68666248  0.91133417  0.34177360  1  0  -0.289663  0  3.307034  0  0  -0.204234  0  3.584778  0  0  -0.223089  0  3.601626  0  -1.193229  0  -0.338654  -0.191572  0  3.57317  0
N  N95  1  0.31333562  0.08866561  0.65822594  1  0  -0.289698  0  3.307084  0  0  -0.204287  0  3.584846  0  0  -0.223149  0  3.601702  0  -1.193338  0  -0.338675  -0.191613  0  3.573226  0
N  N96  1  0.50863373  0.54710132  0.45346858  1  0  -0.21688  0  3.055864  0  0  -0.186341  0  3.348443  0  0  -0.19732  0  3.368642  0  -0.775511  0  -0.215519  -0.178871  0  3.334609  0
N  N97  1  0.49136295  0.45289846  0.54653407  1  0  -0.216818  0  3.055833  0  0  -0.186259  0  3.348375  0  0  -0.197237  0  3.368576  0  -0.753805  0  -0.215475  -0.178789  0  3.334542  0
N  N98  1  0.76594091  0.22154766  0.35114407  1  0  -0.305328  0  3.357242  0  0  -0.216786  0  3.643456  0  0  -0.236654  0  3.660514  0  -1.218884  0  -0.346254  -0.203468  0  3.63165  0
N  N99  1  0.23405720  0.77845212  0.64885171  1  0  -0.305378  0  3.357587  0  0  -0.216848  0  3.643806  0  0  -0.23672  0  3.66087  0  -1.218505  0  -0.346266  -0.20352  0  3.631987  0
N  N100  1  0.97176771  0.49386136  0.45490435  1  0  -0.209386  0  3.061976  0  0  -0.172791  0  3.349416  0  0  -0.183743  0  3.368348  0  -0.741679  0  -0.206666  -0.165398  0  3.336635  0
N  N101  1  0.02822841  0.50614012  0.54509546  1  0  -0.209346  0  3.062276  0  0  -0.172736  0  3.349715  0  0  -0.183685  0  3.368645  0  -0.759582  0  -0.206666  -0.165344  0  3.336934  0
O  O102  1  0.70223055  0.91593892  0.57865979  1  0  -0.63086  0  2.068794  0  0  -0.562669  0  2.343227  0  0  -0.590162  0  2.329187  0  -1.175855  0  -0.329289  -0.543387  0  2.352206  0
O  O103  1  0.29777267  0.08406256  0.42133952  1  0  -0.630832  0  2.068816  0  0  -0.562601  0  2.343196  0  0  -0.590099  0  2.329174  0  -1.175917  0  -0.329267  -0.543319  0  2.352173  0
O  O104  1  0.81451777  0.03277083  0.63633403  1  0  -0.630999  0  1.984587  0  0  -0.577276  0  2.220803  0  0  -0.60222  0  2.208894  0  -1.165654  0  -0.326473  -0.559847  0  2.228464  0
O  O105  1  0.18548289  0.96722980  0.36366652  1  0  -0.631081  0  1.984478  0  0  -0.577352  0  2.220696  0  0  -0.602297  0  2.208788  0  -1.165593  0  -0.326501  -0.559924  0  2.228357  0
O  O106  1  0.90876374  0.97127828  0.82448064  1  0  -0.521405  0  2.112636  0  0  -0.4715  0  2.333987  0  0  -0.495159  0  2.327009  0  -1.165751  0  -0.339466  -0.454414  0  2.337886  0
O  O107  1  0.09123805  0.02872320  0.17551876  1  0  -0.521431  0  2.112615  0  0  -0.47153  0  2.333979  0  0  -0.495189  0  2.327001  0  -1.165753  0  -0.339468  -0.454443  0  2.337875  0
