# generated using pymatgen
data_SmH22C20SN3O11
_symmetry_space_group_name_H-M   'P 1'
_cell_length_a   10.11720871
_cell_length_b   12.82159475
_cell_length_c   13.28596512
_cell_angle_alpha   81.52201961
_cell_angle_beta   87.27892397
_cell_angle_gamma   70.10660283
_symmetry_Int_Tables_number   1
_chemical_formula_structural   SmH22C20SN3O11
_chemical_formula_sum   'Sm2 H44 C40 S2 N6 O22'
_cell_volume   1602.88099369
_cell_formula_units_Z   2
loop_
 _symmetry_equiv_pos_site_id
 _symmetry_equiv_pos_as_xyz
  1  'x, y, z'
loop_
 _atom_site_type_symbol
 _atom_site_label
 _atom_site_symmetry_multiplicity
 _atom_site_fract_x
 _atom_site_fract_y
 _atom_site_fract_z
 _atom_site_occupancy
 _atom_site_pbe_bader_charge
 _atom_site_pbe_bader_spin_density
 _atom_site_pbe_cm5_charge
 _atom_site_pbe_ddec_charge
 _atom_site_pbe_ddec_spin_density
 _atom_site_pbe_ddec_sum_bond_order
 _atom_site_pbe_magmom
Sm  Sm0  1  0.82317864  0.55725656  0.58070699  1  2.219522  0  1.517269  2.064802  0  2.193794  0
Sm  Sm1  1  0.17681997  0.44274399  0.41929155  1  2.219541  0  1.517245  2.064783  0  2.193849  0
H  H2  1  0.96562333  0.71493178  0.69463495  1  0.133385  0  0.116157  0.126721  0  1.034041  0
H  H3  1  0.03437997  0.28506710  0.30536665  1  0.133569  0  0.116214  0.126794  0  1.034064  0
H  H4  1  0.00090960  0.82684760  0.82281028  1  0.078861  0  0.114432  0.120563  0  0.97528  0
H  H5  1  0.99909037  0.17315213  0.17719208  1  0.078848  0  0.114421  0.120583  0  0.975322  0
H  H6  1  0.44753864  0.70939398  0.76615546  1  0.13182  0  0.112706  0.118296  0  1.011219  0
H  H7  1  0.55246295  0.29060657  0.23384370  1  0.131853  0  0.112727  0.118338  0  1.011169  0
H  H8  1  0.41161275  0.59831935  0.63802869  1  0.124613  0  0.112547  0.11819  0  1.028827  0
H  H9  1  0.58839047  0.40168203  0.36197179  1  0.124629  0  0.11254  0.118207  0  1.028862  0
H  H10  1  0.01591859  0.05156889  0.90751171  1  0.117886  0  0.105796  0.120869  0  1.030148  0
H  H11  1  0.98408201  0.94843166  0.09248824  1  0.117879  0  0.105824  0.120962  0  1.030144  0
H  H12  1  0.95023489  0.23992550  0.80058277  1  0.103034  0  0.106155  0.111017  0  1.016998  0
H  H13  1  0.04976605  0.76007421  0.19941579  1  0.103013  0  0.106144  0.111021  0  1.016992  0
H  H14  1  0.32869122  0.12881656  0.62628827  1  0.124295  0  0.116905  0.127305  0  0.9823  0
H  H15  1  0.67131371  0.87118315  0.37371389  1  0.12431  0  0.116899  0.12729  0  0.98231  0
H  H16  1  0.39762279  0.94153453  0.73155913  1  0.132707  0  0.108401  0.119195  0  1.029745  0
H  H17  1  0.60237980  0.05846602  0.26844226  1  0.132704  0  0.108407  0.119187  0  1.029873  0
H  H18  1  0.55933669  0.41345249  0.58212119  1  0.127663  0  0.134771  0.067976  0  0.990732  0
H  H19  1  0.44065965  0.58654639  0.41787693  1  0.127896  0  0.134774  0.067981  0  0.990763  0
H  H20  1  0.39858415  0.27409502  0.74422411  1  0.05688  0  0.101474  0.114272  0  0.989459  0
H  H21  1  0.60141653  0.72590303  0.25577847  1  0.05691  0  0.101489  0.114289  0  0.989441  0
H  H22  1  0.54996754  0.17045835  0.70188109  1  0.031257  0  0.109853  0.125941  0  0.969858  0
H  H23  1  0.45003384  0.82953802  0.29812095  1  0.031305  0  0.10986  0.125963  0  0.96994  0
H  H24  1  0.45502626  0.29167116  0.61578168  1  0.116188  0  0.116746  0.134863  0  1.023245  0
H  H25  1  0.54497214  0.70832522  0.38421973  1  0.116384  0  0.116777  0.13489  0  1.023223  0
H  H26  1  0.70442538  0.33787856  0.83550008  1  0.07392  0  0.110946  0.127365  0  1.021037  0
H  H27  1  0.29557458  0.66212115  0.16449852  1  0.073905  0  0.110938  0.127353  0  1.021059  0
H  H28  1  0.69992445  0.19917207  0.83835377  1  0.071123  0  0.10862  0.126741  0  0.979304  0
H  H29  1  0.30007748  0.80082764  0.16164476  1  0.07114  0  0.1086  0.126699  0  0.979247  0
H  H30  1  0.55322482  0.30343514  0.88314091  1  0.064409  0  0.10085  0.113697  0  1.002682  0
H  H31  1  0.44677746  0.69656373  0.11685772  1  0.064371  0  0.100835  0.113693  0  1.002691  0
H  H32  1  0.00402030  0.45445842  0.83547732  1  0.088301  0  0.126647  0.043389  0  0.979003  0
H  H33  1  0.99597797  0.54554298  0.16452337  1  0.088286  0  0.126679  0.043412  0  0.978946  0
H  H34  1  0.64666322  0.60939435  0.97287148  1  0.064236  0  0.10681  0.126369  0  0.978176  0
H  H35  1  0.35333674  0.39060537  0.02712862  1  0.064187  0  0.106823  0.126382  0  0.978146  0
H  H36  1  0.62499263  0.47798764  0.96451725  1  0.059986  0  0.107618  0.118988  0  0.993115  0
H  H37  1  0.37500663  0.52201376  0.03548339  1  0.060012  0  0.107608  0.118954  0  0.99307  0
H  H38  1  0.62783175  0.57234035  0.85123983  1  0.116001  0  0.118473  0.1399  0  1.012301  0
H  H39  1  0.37216653  0.42766105  0.14876085  1  0.115994  0  0.118465  0.139872  0  1.012336  0
H  H40  1  0.86299396  0.32952740  0.01318143  1  0.131358  0  0.101982  0.122629  0  1.041024  0
H  H41  1  0.13700594  0.67047483  0.98681831  1  0.131466  0  0.101997  0.122693  0  1.040943  0
H  H42  1  0.87115547  0.44124504  0.07576799  1  0.059875  0  0.10117  0.111214  0  1.006904  0
H  H43  1  0.12884315  0.55875551  0.92423204  1  0.060019  0  0.101175  0.111226  0  1.006891  0
H  H44  1  0.00909856  0.37754472  0.99225577  1  0.028619  0  0.110941  0.124246  0  0.987832  0
H  H45  1  0.99089837  0.62245751  0.00774409  1  0.028739  0  0.110918  0.124207  0  0.987854  0
C  C46  1  0.17187598  0.57765310  0.58361968  1  1.542877  0  0.224349  0.631687  0  4.15611  0
C  C47  1  0.82812420  0.42235080  0.41637905  1  1.542888  0  0.224249  0.631587  0  4.156139  0
C  C48  1  0.18762590  0.64671273  0.66067446  1  -0.06588  0  -0.0072  -0.026353  0  3.929082  0
C  C49  1  0.81237937  0.35328614  0.33932631  1  -0.065874  0  -0.007205  -0.026506  0  3.929078  0
C  C50  1  0.07099550  0.71246452  0.71143450  1  0.003339  0  -0.069568  -0.076217  0  3.904097  0
C  C51  1  0.92900778  0.28753435  0.28856485  1  0.002889  0  -0.06963  -0.076224  0  3.904137  0
C  C52  1  0.09044108  0.77555147  0.78269666  1  -0.010066  0  -0.078924  -0.089805  0  3.974703  0
C  C53  1  0.90956057  0.22444657  0.21730287  1  -0.009884  0  -0.078907  -0.089833  0  3.974739  0
C  C54  1  0.22678800  0.77157642  0.80296197  1  -0.270851  0  -0.01971  -0.08395  0  3.996647  0
C  C55  1  0.77321296  0.22842329  0.19703885  1  -0.270782  0  -0.019734  -0.083952  0  3.996641  0
C  C56  1  0.34310448  0.70840373  0.75152151  1  0.017232  0  -0.078117  -0.086539  0  3.975758  0
C  C57  1  0.65689873  0.29159766  0.24847822  1  0.017409  0  -0.078127  -0.086554  0  3.975734  0
C  C58  1  0.32266190  0.64606454  0.68024115  1  0.001277  0  -0.072862  -0.070558  0  3.928119  0
C  C59  1  0.67734133  0.35393684  0.31975933  1  0.001179  0  -0.072849  -0.070538  0  3.928047  0
C  C60  1  0.21073289  0.98706778  0.82591589  1  -0.274367  0  -0.020492  -0.077677  0  3.991348  0
C  C61  1  0.78926737  0.01293362  0.17408546  1  -0.274362  0  -0.020423  -0.077654  0  3.991272  0
C  C62  1  0.08435861  0.06914907  0.84648942  1  0.013371  0  -0.085153  -0.098266  0  3.97796  0
C  C63  1  0.91563935  0.93085064  0.15350776  1  0.0133  0  -0.085226  -0.098439  0  3.978011  0
C  C64  1  0.04830305  0.17408746  0.78734774  1  -0.04226  0  -0.081341  -0.084299  0  3.946327  0
C  C65  1  0.95169890  0.82591226  0.21265304  1  -0.042173  0  -0.081331  -0.084296  0  3.946286  0
C  C66  1  0.13635101  0.19593409  0.70847720  1  -0.058849  0  -0.008474  -0.030182  0  3.931406  0
C  C67  1  0.86365298  0.80406311  0.29152386  1  -0.058865  0  -0.008499  -0.0302  0  3.931484  0
C  C68  1  0.26220911  0.11190130  0.68893874  1  0.012642  0  -0.069199  -0.066104  0  3.911392  0
C  C69  1  0.73779348  0.88809925  0.31106189  1  0.012556  0  -0.069201  -0.066065  0  3.911337  0
C  C70  1  0.30061835  0.00699411  0.74783923  1  -0.006986  0  -0.076776  -0.085514  0  3.951484  0
C  C71  1  0.69938185  0.99300980  0.25216326  1  -0.006948  0  -0.076811  -0.085546  0  3.951625  0
C  C72  1  0.09467385  0.30906085  0.64383193  1  1.607773  0  0.230885  0.639822  0  4.168146  0
C  C73  1  0.90532674  0.69093970  0.35616728  1  1.607784  0  0.230907  0.639895  0  4.168201  0
C  C74  1  0.60543144  0.40111323  0.65827189  1  1.369804  0  0.18778  0.324223  0  4.081265  0
C  C75  1  0.39457020  0.59888480  0.34172614  1  1.368993  0  0.187657  0.323988  0  4.081336  0
C  C76  1  0.49115570  0.26083434  0.69445064  1  0.272962  0  -0.127157  -0.279471  0  3.913662  0
C  C77  1  0.50884364  0.73916455  0.30555112  1  0.272652  0  -0.127197  -0.279528  0  3.913763  0
C  C78  1  0.63737127  0.28877299  0.82597803  1  0.266721  0  -0.132186  -0.272244  0  3.902742  0
C  C79  1  0.36263002  0.71122588  0.17402064  1  0.266735  0  -0.132162  -0.272209  0  3.902679  0
C  C80  1  0.89125712  0.50547162  0.83458426  1  1.396421  0  0.190568  0.335238  0  4.11413  0
C  C81  1  0.10873851  0.49452894  0.16541365  1  1.396325  0  0.190472  0.335117  0  4.114016  0
C  C82  1  0.67150948  0.53980324  0.92775221  1  0.243805  0  -0.127101  -0.270027  0  3.875653  0
C  C83  1  0.32848879  0.46019816  0.07224922  1  0.243816  0  -0.127073  -0.269957  0  3.87557  0
C  C84  1  0.89523364  0.40390190  0.00487294  1  0.247716  0  -0.133614  -0.289374  0  3.931552  0
C  C85  1  0.10476554  0.59610200  0.99512583  1  0.24731  0  -0.133606  -0.289393  0  3.931452  0
S  S86  1  0.25475211  0.85017571  0.89482149  1  2.462712  0  0.470532  0.95646  0  5.761258  0
S  S87  1  0.74524950  0.14982485  0.10518068  1  2.462552  0  0.470597  0.956552  0  5.76125  0
N  N88  1  0.62651545  0.78368959  0.59562415  1  0.815801  0  0.082698  0.7276  0  4.425943  0
N  N89  1  0.37348224  0.21630845  0.40437479  1  0.815934  0  0.082712  0.727664  0  4.425631  0
N  N90  1  0.82278446  0.48488504  0.91956188  1  -1.204743  0  -0.279474  0.027049  0  3.71577  0
N  N91  1  0.17721579  0.51511635  0.08043947  1  -1.204612  0  -0.279475  0.027055  0  3.715734  0
N  N92  1  0.57934170  0.32053092  0.72356009  1  -1.201503  0  -0.277165  0.036286  0  3.709357  0
N  N93  1  0.42065726  0.67946879  0.27643856  1  -1.201437  0  -0.277152  0.036331  0  3.709357  0
O  O94  1  0.05030464  0.57449061  0.56467556  1  -1.205729  0  -0.419214  -0.735247  0  2.409138  0
O  O95  1  0.94969059  0.42551330  0.43532412  1  -1.205712  0  -0.419155  -0.73516  0  2.409165  0
O  O96  1  0.28052210  0.52348084  0.53715096  1  -1.179973  0  -0.370198  -0.625605  0  2.232915  0
O  O97  1  0.71947276  0.47652391  0.46284711  1  -1.180025  0  -0.370177  -0.625564  0  2.23283  0
O  O98  1  0.15242805  0.85114377  0.97598270  1  -1.303475  0  -0.314353  -0.532322  0  2.196241  0
O  O99  1  0.84757320  0.14885762  0.02401786  1  -1.303461  0  -0.314363  -0.532337  0  2.196161  0
O  O100  1  0.40364601  0.80743098  0.91970523  1  -1.307612  0  -0.324935  -0.53076  0  2.137966  0
O  O101  1  0.59635756  0.19256957  0.08029460  1  -1.307545  0  -0.324979  -0.530794  0  2.138061  0
O  O102  1  0.97345529  0.37808806  0.65935316  1  -1.206165  0  -0.397527  -0.676418  0  2.319708  0
O  O103  1  0.02654402  0.62191081  0.34064484  1  -1.206172  0  -0.397514  -0.676429  0  2.319677  0
O  O104  1  0.18333048  0.32762777  0.57926249  1  -1.195414  0  -0.390804  -0.664263  0  2.346056  0
O  O105  1  0.81667209  0.67237277  0.42073589  1  -1.195355  0  -0.390795  -0.664265  0  2.346049  0
O  O106  1  0.75894850  0.76055924  0.60683516  1  -0.559499  0  -0.239076  -0.512105  0  2.013018  0
O  O107  1  0.24104651  0.23944048  0.39316440  1  -0.559629  0  -0.239015  -0.512091  0  2.012871  0
O  O108  1  0.58672246  0.70135516  0.57943333  1  -0.601487  0  -0.265735  -0.554903  0  2.003831  0
O  O109  1  0.41327656  0.29864204  0.42056342  1  -0.601438  0  -0.265695  -0.554908  0  2.003796  0
O  O110  1  0.54094689  0.87809536  0.59977175  1  -0.462594  0  -0.155823  -0.37752  0  1.921409  0
O  O111  1  0.45904791  0.12190019  0.40023068  1  -0.46268  0  -0.155914  -0.377603  0  1.921293  0
O  O112  1  0.83564367  0.57569777  0.75975579  1  -1.182727  0  -0.366828  -0.549083  0  2.390295  0
O  O113  1  0.16435368  0.42430111  0.24024455  1  -1.182691  0  -0.366795  -0.549037  0  2.390234  0
O  O114  1  0.67552937  0.45893059  0.68001388  1  -1.190228  0  -0.365065  -0.558101  0  2.375581  0
O  O115  1  0.32446696  0.54106828  0.31998349  1  -1.189622  0  -0.364951  -0.557894  0  2.375641  0
