# generated using pymatgen
data_ZnH8C6N2O7
_symmetry_space_group_name_H-M   'P 1'
_cell_length_a   7.26431465
_cell_length_b   8.13751521
_cell_length_c   9.80764058
_cell_angle_alpha   65.48795880
_cell_angle_beta   78.21192282
_cell_angle_gamma   60.52484257
_symmetry_Int_Tables_number   1
_chemical_formula_structural   ZnH8C6N2O7
_chemical_formula_sum   'Zn2 H16 C12 N4 O14'
_cell_volume   459.23560903
_cell_formula_units_Z   2
loop_
 _symmetry_equiv_pos_site_id
 _symmetry_equiv_pos_as_xyz
  1  'x, y, z'
loop_
 _atom_site_type_symbol
 _atom_site_label
 _atom_site_symmetry_multiplicity
 _atom_site_fract_x
 _atom_site_fract_y
 _atom_site_fract_z
 _atom_site_occupancy
 _atom_site_hle17_bader_spin_density
 _atom_site_hle17_ddec_charge
 _atom_site_hle17_ddec_spin_density
 _atom_site_hle17_ddec_sum_bond_order
 _atom_site_hle17_magmom
 _atom_site_hse06_10hf_bader_spin_density
 _atom_site_hse06_10hf_ddec_charge
 _atom_site_hse06_10hf_ddec_spin_density
 _atom_site_hse06_10hf_ddec_sum_bond_order
 _atom_site_hse06_10hf_magmom
 _atom_site_hse06_bader_spin_density
 _atom_site_hse06_ddec_charge
 _atom_site_hse06_ddec_spin_density
 _atom_site_hse06_ddec_sum_bond_order
 _atom_site_hse06_magmom
 _atom_site_pbe_bader_spin_density
 _atom_site_pbe_cm5_charge
 _atom_site_pbe_ddec_charge
 _atom_site_pbe_ddec_spin_density
 _atom_site_pbe_ddec_sum_bond_order
 _atom_site_pbe_magmom
Zn  Zn0  1  0.07940194  0.00448720  0.22754279  1  0  1.144507  0  1.714737  0  0  0.977016  0  2.164143  0  0  1.024161  0  2.106755  0  0  0.670976  0.943863  0  2.203259  0
Zn  Zn1  1  0.57947440  0.23210073  0.77257220  1  0  1.145051  0  1.714914  0  0  0.977911  0  2.164023  0  0  1.02504  0  2.106616  0  0  0.670973  0.944548  0  2.203515  0
H  H2  1  0.88180538  0.37373254  0.00746370  1  0  0.428283  0  0.815014  0  0  0.412601  0  0.865582  0  0  0.420533  0  0.856817  0  0  0.324215  0.406949  0  0.871874  0
H  H3  1  0.38143927  0.38076696  0.99268558  1  0  0.427982  0  0.815453  0  0  0.412654  0  0.86535  0  0  0.420486  0  0.856796  0  0  0.324578  0.406744  0  0.87211  0
H  H4  1  0.11315584  0.29546934  0.94008893  1  0  0.436142  0  0.861305  0  0  0.40253  0  0.928327  0  0  0.414269  0  0.911202  0  0  0.290409  0.394112  0  0.940646  0
H  H5  1  0.61294101  0.23593970  0.05979804  1  0  0.436026  0  0.861642  0  0  0.402511  0  0.928453  0  0  0.414286  0  0.91129  0  0  0.290634  0.394045  0  0.940806  0
H  H6  1  0.96427184  0.80258820  0.13700070  1  0  0.425876  0  0.874686  0  0  0.39433  0  0.939215  0  0  0.404636  0  0.924439  0  0  0.293325  0.387016  0  0.949685  0
H  H7  1  0.46439007  0.93955185  0.86297297  1  0  0.424988  0  0.8757  0  0  0.393918  0  0.939502  0  0  0.404165  0  0.924808  0  0  0.293343  0.386668  0  0.949885  0
H  H8  1  0.15998522  0.83189700  0.04152077  1  0  0.422891  0  0.881318  0  0  0.389194  0  0.948929  0  0  0.401536  0  0.931028  0  0  0.288618  0.380506  0  0.961528  0
H  H9  1  0.66006523  0.87332009  0.95845107  1  0  0.422569  0  0.8817  0  0  0.388509  0  0.949842  0  0  0.400805  0  0.932008  0  0  0.28838  0.379634  0  0.962693  0
H  H10  1  0.69161014  0.03698516  0.30150675  1  0  0.380302  0  0.938215  0  0  0.334726  0  1.032201  0  0  0.346242  0  1.015994  0  0  0.280904  0.326548  0  1.043701  0
H  H11  1  0.19184005  0.33829665  0.69837694  1  0  0.381536  0  0.937279  0  0  0.335959  0  1.030712  0  0  0.347438  0  1.014552  0  0  0.281243  0.327839  0  1.042114  0
H  H12  1  0.66905933  0.26075045  0.25898463  1  0  0.41691  0  0.896573  0  0  0.381052  0  0.967347  0  0  0.393631  0  0.949429  0  0  0.284453  0.372177  0  0.979974  0
H  H13  1  0.16914352  0.51950997  0.74102698  1  0  0.417  0  0.896133  0  0  0.38119  0  0.966909  0  0  0.393818  0  0.948925  0  0  0.28432  0.372317  0  0.979525  0
H  H14  1  0.15548577  0.52292812  0.38873497  1  0  0.117649  0  0.951811  0  0  0.121217  0  1.018756  0  0  0.125217  0  1.015118  0  0  0.125062  0.118191  0  1.021552  0
H  H15  1  0.65532340  0.91221343  0.61099269  1  0  0.117907  0  0.952793  0  0  0.121577  0  1.019162  0  0  0.12558  0  1.015565  0  0  0.125482  0.118267  0  1.022419  0
H  H16  1  0.10623797  0.40807602  0.19952649  1  0  0.103447  0  0.937734  0  0  0.108256  0  1.003602  0  0  0.112864  0  0.998804  0  0  0.124779  0.104706  0  1.00769  0
H  H17  1  0.60638053  0.60808212  0.80042537  1  0  0.102841  0  0.937715  0  0  0.10762  0  1.003638  0  0  0.112316  0  0.998734  0  0  0.124661  0.10415  0  1.007462  0
C  C18  1  0.08701267  0.84779357  0.55665164  1  0  0.621804  0  3.938083  0  0  0.564334  0  4.246452  0  0  0.597433  0  4.240699  0  0  0.207861  0.542065  0  4.249425  0
C  C19  1  0.58700209  0.40460868  0.44352421  1  0  0.619072  0  3.939376  0  0  0.561615  0  4.247823  0  0  0.59468  0  4.242098  0  0  0.207082  0.539371  0  4.250876  0
C  C20  1  0.09063747  0.04723874  0.51275642  1  0  0.033813  0  3.722631  0  0  0.03158  0  3.96857  0  0  0.029347  0  3.987563  0  0  0.116131  0.032505  0  3.956286  0
C  C21  1  0.59068501  0.56020325  0.48733441  1  0  0.037349  0  3.7184  0  0  0.034969  0  3.963951  0  0  0.032835  0  3.982868  0  0  0.117278  0.03562  0  3.951909  0
C  C22  1  0.10136813  0.11846636  0.61758761  1  0  0.071109  0  3.673045  0  0  0.064737  0  3.926318  0  0  0.066153  0  3.941227  0  0  0.133998  0.063257  0  3.916634  0
C  C23  1  0.60136507  0.73623159  0.38240333  1  0  0.072578  0  3.670094  0  0  0.067081  0  3.921622  0  0  0.06852  0  3.936531  0  0  0.135009  0.06585  0  3.911984  0
C  C24  1  0.07908099  0.02305119  0.78560397  1  0  0.665337  0  3.915845  0  0  0.60054  0  4.231757  0  0  0.636645  0  4.220256  0  0  0.223455  0.576026  0  4.238589  0
C  C25  1  0.57906559  0.80867164  0.21440878  1  0  0.663019  0  3.921792  0  0  0.598571  0  4.23675  0  0  0.634633  0  4.225292  0  0  0.223129  0.573922  0  4.243768  0
C  C26  1  0.13443937  0.38742383  0.42373923  1  0  0.109169  0  3.610992  0  0  0.073232  0  3.878871  0  0  0.078224  0  3.890786  0  0  0.065403  0.069876  0  3.871118  0
C  C27  1  0.63432579  0.81162227  0.57611600  1  0  0.109223  0  3.612699  0  0  0.073419  0  3.880303  0  0  0.078414  0  3.892265  0  0  0.065455  0.070207  0  3.872821  0
C  C28  1  0.11219800  0.32261317  0.31952321  1  0  0.104815  0  3.631806  0  0  0.067408  0  3.903535  0  0  0.071448  0  3.916383  0  0  0.060987  0.064391  0  3.895149  0
C  C29  1  0.61228973  0.64252093  0.68042967  1  0  0.106724  0  3.635505  0  0  0.06992  0  3.906359  0  0  0.073832  0  3.919333  0  0  0.061635  0.066677  0  3.898208  0
N  N30  1  0.09389888  0.15194837  0.36538226  1  0  -0.292229  0  3.286799  0  0  -0.231143  0  3.554248  0  0  -0.243229  0  3.570746  0  0  -0.29372  -0.222425  0  3.542834  0
N  N31  1  0.59403534  0.51758074  0.63468673  1  0  -0.295385  0  3.287682  0  0  -0.234879  0  3.555478  0  0  -0.247101  0  3.572055  0  0  -0.29489  -0.226378  0  3.544733  0
N  N32  1  0.12733527  0.28621535  0.57107568  1  0  -0.262124  0  3.13334  0  0  -0.209731  0  3.382073  0  0  -0.219198  0  3.395707  0  0  -0.279887  -0.202891  0  3.372863  0
N  N33  1  0.62723485  0.85762346  0.42878883  1  0  -0.263593  0  3.131153  0  0  -0.211783  0  3.380258  0  0  -0.221401  0  3.393975  0  0  -0.28117  -0.205273  0  3.371352  0
O  O34  1  0.09273156  0.79305293  0.45093155  1  0  -0.628389  0  2.032672  0  0  -0.569216  0  2.295877  0  0  -0.596867  0  2.28563  0  0  -0.31137  -0.549891  0  2.302163  0
O  O35  1  0.59286690  0.24411960  0.54926387  1  0  -0.628024  0  2.034317  0  0  -0.568652  0  2.296787  0  0  -0.596397  0  2.286711  0  0  -0.311082  -0.549051  0  2.303029  0
O  O36  1  0.08611816  0.74872764  0.69524501  1  0  -0.569476  0  1.982401  0  0  -0.513126  0  2.198034  0  0  -0.538233  0  2.190502  0  0  -0.296127  -0.495759  0  2.203072  0
O  O37  1  0.58594180  0.44413557  0.30493708  1  0  -0.569155  0  1.983999  0  0  -0.51255  0  2.199283  0  0  -0.537549  0  2.191704  0  0  -0.2962  -0.495151  0  2.203983  0
O  O38  1  0.89403649  0.08024152  0.83872142  1  0  -0.619282  0  2.06983  0  0  -0.550563  0  2.33601  0  0  -0.58116  0  2.323724  0  0  -0.305415  -0.528626  0  2.343418  0
O  O39  1  0.39405835  0.91888758  0.16134922  1  0  -0.617872  0  2.070896  0  0  -0.549558  0  2.336732  0  0  -0.580157  0  2.324426  0  0  -0.305454  -0.527817  0  2.344607  0
O  O40  1  0.24634593  0.90549592  0.86353362  1  0  -0.615428  0  1.993305  0  0  -0.552802  0  2.210007  0  0  -0.579929  0  2.199038  0  0  -0.298326  -0.53344  0  2.217019  0
O  O41  1  0.74636903  0.76893134  0.13647009  1  0  -0.615141  0  1.995535  0  0  -0.552325  0  2.211991  0  0  -0.579429  0  2.201015  0  0  -0.298009  -0.53282  0  2.218996  0
O  O42  1  0.02948582  0.28407627  0.03605103  1  0  -0.816564  0  1.871514  0  0  -0.758945  0  2.073175  0  0  -0.77829  0  2.041535  0  0  -0.566341  -0.7454  0  2.095412  0
O  O43  1  0.52913877  0.32035106  0.96393303  1  0  -0.815601  0  1.871634  0  0  -0.758379  0  2.073556  0  0  -0.777729  0  2.041869  0  0  -0.566871  -0.744735  0  2.09623  0
O  O44  1  0.09981043  0.79969193  0.14556679  1  0  -0.827212  0  1.929969  0  0  -0.76295  0  2.140651  0  0  -0.785915  0  2.104584  0  0  -0.576998  -0.746611  0  2.165517  0
O  O45  1  0.59995719  0.94518467  0.85442193  1  0  -0.825969  0  1.930606  0  0  -0.761875  0  2.141156  0  0  -0.784764  0  2.105303  0  0  -0.57686  -0.745554  0  2.166474  0
O  O46  1  0.73552421  0.14098344  0.22317731  1  0  -0.851647  0  1.993202  0  0  -0.775089  0  2.21405  0  0  -0.800257  0  2.178393  0  0  -0.56263  -0.757365  0  2.238873  0
O  O47  1  0.23569530  0.36391833  0.77672436  1  0  -0.852828  0  1.992689  0  0  -0.776607  0  2.213351  0  0  -0.801583  0  2.177284  0  0  -0.562427  -0.758861  0  2.238454  0
