# generated using pymatgen
data_CuH26C30(NO)4
_symmetry_space_group_name_H-M   'P 1'
_cell_length_a   6.93878296
_cell_length_b   8.53449466
_cell_length_c   11.32156480
_cell_angle_alpha   76.45001498
_cell_angle_beta   76.94855437
_cell_angle_gamma   88.18961154
_symmetry_Int_Tables_number   1
_chemical_formula_structural   CuH26C30(NO)4
_chemical_formula_sum   'Cu1 H26 C30 N4 O4'
_cell_volume   634.79225853
_cell_formula_units_Z   1
loop_
 _symmetry_equiv_pos_site_id
 _symmetry_equiv_pos_as_xyz
  1  'x, y, z'
loop_
 _atom_site_type_symbol
 _atom_site_label
 _atom_site_symmetry_multiplicity
 _atom_site_fract_x
 _atom_site_fract_y
 _atom_site_fract_z
 _atom_site_occupancy
 _atom_site_pbe_bader_charge
 _atom_site_pbe_bader_spin_density
 _atom_site_pbe_cm5_charge
 _atom_site_pbe_ddec_charge
 _atom_site_pbe_ddec_spin_density
 _atom_site_pbe_ddec_sum_bond_order
 _atom_site_pbe_magmom
Cu  Cu0  1  0.50000182  0.00000119  0.99999586  1  1.134428  0.582242  0.696612  0.821396  0.741206  2.300806  0.581
H  H1  1  0.10343539  0.61096206  0.98625492  1  0.065737  -0.000117  0.093221  0.140798  -8.8e-05  1.02482  0.0
H  H2  1  0.89657165  0.38903071  0.01374867  1  0.065733  -0.000117  0.093252  0.140879  -8.8e-05  1.024827  0.0
H  H3  1  0.30247091  0.47373668  0.98376708  1  0.090467  0.000281  0.092507  0.14598  3.9e-05  1.018404  0.0
H  H4  1  0.69754211  0.52625851  0.01623349  1  0.090594  0.000281  0.092489  0.146007  3.9e-05  1.018416  0.0
H  H5  1  0.23691466  0.57141598  0.84186496  1  0.075473  0.000745  0.089164  0.135545  0.000315  1.032261  0.0
H  H6  1  0.76308945  0.42857801  0.15813706  1  0.075505  0.000746  0.089155  0.135554  0.000316  1.032279  0.0
H  H7  1  0.60091166  0.63682927  0.78089182  1  0.033594  -0.000432  0.093152  0.12575  -0.000331  1.041288  0.0
H  H8  1  0.39908963  0.36316954  0.21910797  1  0.033601  -0.000432  0.09316  0.125768  -0.000331  1.041271  0.0
H  H9  1  0.77079324  0.74607217  0.58993218  1  0.071749  7.8e-05  0.097236  0.094382  1.2e-05  1.029016  0.0
H  H10  1  0.22920271  0.25394713  0.41006031  1  0.072044  7.7e-05  0.097315  0.094475  1.2e-05  1.029023  0.0
H  H11  1  0.07965798  0.75863286  0.42754036  1  0.074949  0.000229  0.094686  0.087741  0.000123  1.039531  0.0
H  H12  1  0.92034244  0.24138765  0.57245042  1  0.07495  0.000229  0.094645  0.087654  0.000123  1.039599  0.0
H  H13  1  0.39457312  0.85520445  0.45822390  1  0.065671  -9e-06  0.093913  0.084956  -6e-06  1.040729  0.0
H  H14  1  0.60542835  0.14480038  0.54177833  1  0.065698  -9e-06  0.093912  0.084944  -6e-06  1.040728  0.0
H  H15  1  0.39931426  0.94339808  0.65267010  1  0.053867  6.6e-05  0.095099  0.091827  1.6e-05  1.032134  0.0
H  H16  1  0.60068404  0.05659952  0.34733473  1  0.053904  6.6e-05  0.095048  0.091754  1.6e-05  1.032262  0.0
H  H17  1  0.08672396  0.94115547  0.81147638  1  0.088713  0.000246  0.100624  0.100068  0.000179  1.04095  0.0
H  H18  1  0.91327286  0.05884213  0.18852513  1  0.088704  0.000246  0.10064  0.100087  0.000179  1.040941  0.0
H  H19  1  0.05496419  0.13995917  0.94858519  1  0.113147  1e-05  0.119143  0.089931  5e-06  1.001565  0.0
H  H20  1  0.94503424  0.86004326  0.05141612  1  0.113126  1e-05  0.119141  0.089928  5e-06  1.001564  0.0
H  H21  1  0.90009883  0.31386573  0.78929170  1  0.069117  3.5e-05  0.110254  0.118362  4.7e-05  1.010132  0.0
H  H22  1  0.09990115  0.68613910  0.21071074  1  0.069139  3.5e-05  0.110263  0.118354  4.7e-05  1.010154  0.0
H  H23  1  0.12372909  0.47932558  0.59127258  1  0.116393  5e-06  0.108759  0.108185  -7e-06  1.037478  0.0
H  H24  1  0.87626656  0.52068287  0.40873070  1  0.116436  5e-06  0.108778  0.108194  -7e-06  1.037514  0.0
H  H25  1  0.62045452  0.27679496  0.73994141  1  0.117961  -0.000109  0.116968  0.088444  -0.000128  1.013803  0.0
H  H26  1  0.37954214  0.72319661  0.26005588  1  0.117933  -0.000109  0.116969  0.088395  -0.000128  1.013772  0.0
C  C27  1  0.24938841  0.58721941  0.93327830  1  -0.148616  0.012343  -0.250814  -0.480221  0.008517  3.890047  0.01
C  C28  1  0.75061867  0.41277458  0.06672243  1  -0.148525  0.012344  -0.250804  -0.480368  0.008517  3.890105  0.01
C  C29  1  0.39190769  0.72343080  0.91918248  1  0.705454  -0.002578  0.119842  0.487537  -0.003449  4.016627  -0.004
C  C30  1  0.60809360  0.27656800  0.08081554  1  0.705267  -0.002577  0.119901  0.487707  -0.003449  4.016417  -0.004
C  C31  1  0.57472059  0.73080812  0.83285458  1  0.018647  0.005283  -0.160171  -0.463742  0.003182  3.997011  0.006
C  C32  1  0.42528369  0.26919188  0.16714547  1  0.018667  0.005282  -0.16017  -0.463799  0.003182  3.997047  0.006
C  C33  1  0.72446848  0.84860813  0.80888862  1  0.687153  -0.002302  0.115561  0.375058  -0.002819  4.080588  -0.003
C  C34  1  0.27553879  0.15139309  0.19111168  1  0.68712  -0.002301  0.115638  0.37517  -0.002818  4.08037  -0.003
C  C35  1  0.90894254  0.84251602  0.71242591  1  -0.011959  0.01135  -0.016342  0.009964  0.007744  3.955352  0.009
C  C36  1  0.09106171  0.15748278  0.28757435  1  -0.011571  0.01135  -0.016404  0.009952  0.007745  3.955282  0.009
C  C37  1  0.90839044  0.78850198  0.60443011  1  -0.099107  0.000679  -0.088925  -0.114255  0.000193  3.966952  0.0
C  C38  1  0.09161405  0.21150526  0.39556334  1  -0.099761  0.000679  -0.089006  -0.114443  0.000193  3.967011  0.0
C  C39  1  0.08242694  0.79472119  0.51323012  1  -0.014341  0.000973  -0.094195  -0.084319  0.000635  4.030493  0.001
C  C40  1  0.91757321  0.20528967  0.48676505  1  -0.014348  0.000974  -0.094129  -0.08411  0.000635  4.030169  0.001
C  C41  1  0.25907707  0.85099952  0.52974991  1  -0.095398  -0.000169  -0.093049  -0.078964  -0.000238  4.001223  0.0
C  C42  1  0.74092298  0.14900773  0.47024414  1  -0.095319  -0.000169  -0.093044  -0.078989  -0.000238  4.001267  0.0
C  C43  1  0.26148694  0.90231253  0.63777929  1  -0.000583  0.000383  -0.095641  -0.082603  0.000184  4.000985  0.0
C  C44  1  0.73851882  0.09768747  0.36222055  1  -0.000613  0.000383  -0.095625  -0.082601  0.000184  4.001221  0.0
C  C45  1  0.08687641  0.89976798  0.72765646  1  -0.079708  -0.000129  -0.086408  -0.095887  -0.000314  3.948126  0.0
C  C46  1  0.91312478  0.10022721  0.27234310  1  -0.079773  -0.000129  -0.086394  -0.09587  -0.000315  3.947935  0.0
C  C47  1  0.14743785  0.21116409  0.86280352  1  0.499041  -0.00043  0.059327  0.108778  -0.000472  3.932463  0.0
C  C48  1  0.85256048  0.78883471  0.13719668  1  0.498331  -0.00043  0.059277  0.108754  -0.000472  3.93237  0.0
C  C49  1  0.06083792  0.30954575  0.77222717  1  -0.024433  0.000173  -0.075547  -0.110652  0.000152  3.952836  0.0
C  C50  1  0.93916051  0.69045667  0.22777414  1  -0.024035  0.000173  -0.075536  -0.1106  0.000151  3.952826  0.0
C  C51  1  0.18229882  0.39912114  0.66420095  1  -0.030805  -0.000138  -0.061561  -0.097897  -0.000161  3.913504  0.0
C  C52  1  0.81769807  0.60087887  0.33580012  1  -0.03072  -0.000138  -0.0616  -0.097981  -0.000161  3.913501  0.0
C  C53  1  0.38832682  0.38806388  0.65129990  1  0.350705  0.000105  0.087765  0.110301  5.9e-05  4.056211  0.0
C  C54  1  0.61166852  0.61193372  0.34869916  1  0.350736  0.000105  0.087805  0.110315  5.9e-05  4.05613  0.0
C  C55  1  0.46099620  0.28783717  0.74801421  1  0.501251  -0.000237  0.057447  0.034366  -0.000267  3.928076  0.0
C  C56  1  0.53900196  0.71215561  0.25198354  1  0.501768  -0.000237  0.057416  0.034442  -0.000267  3.927976  0.0
N  N57  1  0.34381639  0.19955245  0.85083058  1  -1.204518  -0.001713  -0.31673  -0.265192  -0.001952  3.465864  0.0
N  N58  1  0.65618032  0.80044153  0.14916717  1  -1.204835  -0.001713  -0.316664  -0.265191  -0.001952  3.465695  0.0
N  N59  1  0.53181519  0.47280701  0.54895844  1  -0.498726  -0.000203  -0.142237  -0.126232  -0.000239  3.294556  0.0
N  N60  1  0.46818163  0.52719059  0.45104130  1  -0.456384  -0.000204  -0.142267  -0.126162  -0.000239  3.294537  0.0
O  O61  1  0.33486704  0.82215660  0.98905989  1  -1.085128  0.092414  -0.303538  -0.47509  0.059276  2.35441  0.085
O  O62  1  0.66512991  0.17784583  0.01093898  1  -1.085089  0.092405  -0.303604  -0.475189  0.05927  2.354355  0.085
O  O63  1  0.71879069  0.96503640  0.86402971  1  -1.094235  0.092044  -0.307817  -0.473637  0.059191  2.385548  0.084
O  O64  1  0.28121215  0.03496482  0.13596679  1  -1.094239  0.092055  -0.307863  -0.473707  0.059198  2.385358  0.084
