# generated using pymatgen
data_ZnH12C21N3O4
_symmetry_space_group_name_H-M   'P 1'
_cell_length_a   11.91369308
_cell_length_b   14.68696064
_cell_length_c   15.66096918
_cell_angle_alpha   99.41894910
_cell_angle_beta   89.74263736
_cell_angle_gamma   106.94333701
_symmetry_Int_Tables_number   1
_chemical_formula_structural   ZnH12C21N3O4
_chemical_formula_sum   'Zn2 H24 C42 N6 O8'
_cell_volume   2583.29428118
_cell_formula_units_Z   2
loop_
 _symmetry_equiv_pos_site_id
 _symmetry_equiv_pos_as_xyz
  1  'x, y, z'
loop_
 _atom_site_type_symbol
 _atom_site_label
 _atom_site_symmetry_multiplicity
 _atom_site_fract_x
 _atom_site_fract_y
 _atom_site_fract_z
 _atom_site_occupancy
 _atom_site_pbe_bader_charge
 _atom_site_pbe_bader_spin_density
 _atom_site_pbe_cm5_charge
 _atom_site_pbe_ddec_charge
 _atom_site_pbe_ddec_spin_density
 _atom_site_pbe_ddec_sum_bond_order
 _atom_site_pbe_magmom
Zn  Zn0  1  0.53269830  0.59501323  0.48300234  1  1.284144  0  0.669911  0.823736  0  2.416976  0
Zn  Zn1  1  0.46573138  0.40408005  0.51685380  1  1.290352  0  0.670334  0.823029  0  2.426882  0
H  H2  1  0.46835916  0.75293283  0.05746388  1  0.072763  0  0.096221  0.090003  0  1.020857  0
H  H3  1  0.38261175  0.36054135  0.84758206  1  0.052607  0  0.095484  0.094941  0  1.031763  0
H  H4  1  0.31114264  0.97873678  0.68087411  1  0.055162  0  0.107505  0.10321  0  1.0007  0
H  H5  1  0.69401856  0.02203986  0.32134650  1  0.05505  0  0.106844  0.101711  0  1.002343  0
H  H6  1  0.46493505  0.76645707  0.53900390  1  0.089381  0  0.122315  0.100505  0  1.015464  0
H  H7  1  0.54424647  0.23578966  0.46569334  1  0.12436  0  0.12273  0.100767  0  1.011867  0
H  H8  1  0.67104128  0.68929760  0.34512733  1  0.111355  0  0.126842  0.117206  0  0.976345  0
H  H9  1  0.32420265  0.30793182  0.65097431  1  0.110334  0  0.125293  0.113406  0  0.983274  0
H  H10  1  0.55853927  0.87273811  0.87909955  1  0.419295  0  0.301102  0.292851  0  0.948891  0
H  H11  1  0.54884781  0.84602975  0.97960271  1  0.426778  0  0.29475  0.282311  0  0.97761  0
H  H12  1  0.36237333  0.12688703  0.12029184  1  0.421817  0  0.302642  0.295612  0  0.947542  0
H  H13  1  0.34536615  0.23835464  0.93860741  1  0.03382  0  0.092365  0.083577  0  1.03607  0
H  H14  1  0.37016260  0.15262319  0.01926396  1  0.420949  0  0.294967  0.282942  0  0.977418  0
H  H15  1  0.21937414  0.19246060  0.73654702  1  0.427799  0  0.318716  0.311866  0  0.923762  0
H  H16  1  0.22026400  0.07608499  0.72072390  1  0.451936  0  0.30998  0.299552  0  0.952675  0
H  H17  1  0.77788213  0.80524704  0.26043473  1  0.464715  0  0.319843  0.314703  0  0.92149  0
H  H18  1  0.78316669  0.92321468  0.27989223  1  0.429076  0  0.309641  0.299293  0  0.95339  0
H  H19  1  0.39538973  0.86155483  0.60172389  1  0.089084  0  0.113867  0.117643  0  0.995267  0
H  H20  1  0.61158759  0.13991124  0.40161138  1  0.064318  0  0.112638  0.115115  0  0.995795  0
H  H21  1  0.47051503  0.54078691  0.22076726  1  0.09016  0  0.0986  0.106434  0  1.040677  0
H  H22  1  0.45441550  0.45985939  0.77721131  1  0.045852  0  0.09729  0.103849  0  1.049175  0
H  H23  1  0.39576901  0.24449520  0.24747611  1  0.057996  0  0.098926  0.113218  0  1.007987  0
H  H24  1  0.53367314  0.75659477  0.75147757  1  0.079546  0  0.099149  0.113273  0  1.013177  0
H  H25  1  0.44027104  0.63120319  0.14881330  1  0.038396  0  0.101371  0.104501  0  1.01184  0
C  C26  1  0.50786311  0.57610060  0.66223703  1  1.572342  0  0.213111  0.59365  0  4.161002  0
C  C27  1  0.37353047  0.31404335  0.96950225  1  -0.047192  0  -0.100657  -0.130243  0  4.054649  0
C  C28  1  0.33704598  0.16299958  0.64928874  1  0.381941  0  0.104053  0.218304  0  4.097436  0
C  C29  1  0.66522334  0.83682659  0.35117162  1  0.417801  0  0.104118  0.219828  0  4.102962  0
C  C30  1  0.36269442  0.25194673  0.62165703  1  0.494548  0  0.030671  -0.051393  0  3.918769  0
C  C31  1  0.63716832  0.74694664  0.37732479  1  0.509302  0  0.030065  -0.055007  0  3.919029  0
C  C32  1  0.48578496  0.21053466  0.51598286  1  0.513524  0  0.046874  0.02453  0  3.914001  0
C  C33  1  0.52010824  0.79059917  0.48670194  1  0.545404  0  0.046403  0.02241  0  3.922098  0
C  C34  1  0.46476361  0.11748656  0.53693320  1  -0.003442  0  0.001153  0.002671  0  3.978706  0
C  C35  1  0.54166154  0.88380437  0.46605864  1  0.010949  0  0.001258  0.003015  0  3.982406  0
C  C36  1  0.38886497  0.09272449  0.60568688  1  -0.00821  0  -0.002038  -0.001774  0  3.976455  0
C  C37  1  0.46547044  0.42767636  0.33633132  1  1.588331  0  0.214486  0.597164  0  4.157675  0
C  C38  1  0.61630329  0.90811509  0.39656236  1  -0.005101  0  -0.004467  -0.005824  0  3.977389  0
C  C39  1  0.51638437  0.04730948  0.49024592  1  0.005864  0  0.004693  0.042421  0  3.955765  0
C  C40  1  0.49093473  0.95428098  0.51329148  1  0.01759  0  0.005802  0.043961  0  3.956477  0
C  C41  1  0.27577855  0.49008600  0.50239063  1  1.702481  0  0.215673  0.65329  0  4.262797  0
C  C42  1  0.71937602  0.50349155  0.49928944  1  1.705802  0  0.217484  0.657819  0  4.258258  0
C  C43  1  0.41559706  0.93257021  0.58300611  1  -0.068418  0  -0.078605  -0.114485  0  3.983677  0
C  C44  1  0.59137223  0.06888179  0.42030675  1  -0.029677  0  -0.077852  -0.113277  0  3.984822  0
C  C45  1  0.36698262  0.99901781  0.62757462  1  0.006578  0  -0.088278  -0.120817  0  4.014246  0
C  C46  1  0.63891485  0.00205690  0.37508719  1  -0.028117  0  -0.087452  -0.117633  0  4.015436  0
C  C47  1  0.15511656  0.49196041  0.50304552  1  0.236253  0  -0.021891  -0.149473  0  3.882545  0
C  C48  1  0.47082032  0.65603305  0.93606077  1  0.054657  0  -0.016366  -0.019657  0  3.966278  0
C  C49  1  0.84074903  0.50338202  0.49979182  1  0.267964  0  -0.022475  -0.15074  0  3.879952  0
C  C50  1  0.05390885  0.49590046  0.50228568  1  -0.383382  0  -0.028973  0.006341  0  4.280017  0
C  C51  1  0.94214663  0.49984279  0.50109012  1  -0.427471  0  -0.028979  0.005373  0  4.280948  0
C  C52  1  0.49305899  0.60476946  0.75687523  1  -0.077783  0  -0.023064  -0.007269  0  4.029368  0
C  C53  1  0.43544829  0.39598526  0.24129159  1  -0.045671  0  -0.021197  -0.004198  0  4.028934  0
C  C54  1  0.50009180  0.72868171  0.88193539  1  0.349549  0  0.087771  0.248877  0  4.081854  0
C  C55  1  0.38019116  0.26817806  0.11590102  1  0.322676  0  0.087539  0.248176  0  4.089699  0
C  C56  1  0.50998160  0.70209530  0.79348063  1  0.04318  0  -0.110317  -0.23684  0  3.979438  0
C  C57  1  0.40193949  0.29743150  0.20482863  1  0.01066  0  -0.10857  -0.233056  0  3.973543  0
C  C58  1  0.46365415  0.53355215  0.80826772  1  -0.002222  0  -0.100019  -0.17426  0  3.984282  0
C  C59  1  0.38989293  0.33921349  0.06127227  1  -0.001078  0  -0.015054  -0.019419  0  3.967484  0
C  C60  1  0.44293425  0.46556500  0.18959712  1  -0.044368  0  -0.102507  -0.180924  0  3.986667  0
C  C61  1  0.45160182  0.55698777  0.89795397  1  -0.048767  0  -0.005244  0.047555  0  3.979678  0
C  C62  1  0.41958241  0.43913809  0.09946590  1  0.014235  0  -0.003984  0.048332  0  3.980668  0
C  C63  1  0.42507307  0.48369184  0.95291481  1  0.028579  0  -0.003278  0.037484  0  3.953215  0
C  C64  1  0.43020948  0.51108809  0.04418161  1  0.006019  0  -0.003977  0.037057  0  3.953277  0
C  C65  1  0.44538929  0.61006117  0.07928185  1  -0.042247  0  -0.094754  -0.131901  0  4.023055  0
C  C66  1  0.39335367  0.38328105  0.91756295  1  -0.066142  0  -0.098591  -0.137111  0  4.030817  0
C  C67  1  0.46222493  0.67910212  0.02731262  1  -0.094759  0  -0.100968  -0.134544  0  4.052088  0
N  N68  1  0.43526421  0.27394396  0.55689050  1  -1.252269  0  -0.323945  -0.169442  0  3.617638  0
N  N69  1  0.56698417  0.72585570  0.44359039  1  -1.257155  0  -0.325127  -0.169295  0  3.619028  0
N  N70  1  0.51576198  0.82551270  0.91752642  1  -1.197176  0  -0.608137  -0.629197  0  3.308216  0
N  N71  1  0.34599905  0.17003193  0.08050720  1  -1.188386  0  -0.60707  -0.627882  0  3.312962  0
N  N72  1  0.26655366  0.14551943  0.71882157  1  -1.192765  0  -0.587664  -0.608619  0  3.31635  0
N  N73  1  0.73449943  0.85425617  0.28113124  1  -1.230819  0  -0.58916  -0.612613  0  3.317645  0
O  O74  1  0.52094758  0.63994914  0.61367148  1  -1.176866  0  -0.319771  -0.544741  0  2.298821  0
O  O75  1  0.43297201  0.36453212  0.38561407  1  -1.169709  0  -0.321088  -0.544035  0  2.296912  0
O  O76  1  0.50579507  0.48864291  0.63661649  1  -1.173926  0  -0.319726  -0.555292  0  2.356427  0
O  O77  1  0.52160538  0.51641764  0.36105259  1  -1.178182  0  -0.320635  -0.557971  0  2.355455  0
O  O78  1  0.34873280  0.56034564  0.47525550  1  -1.145236  0  -0.309725  -0.538688  0  2.258549  0
O  O79  1  0.64361457  0.42164873  0.49803148  1  -1.145056  0  -0.310793  -0.541734  0  2.270823  0
O  O80  1  0.29702183  0.41892942  0.52864879  1  -1.143191  0  -0.314508  -0.538861  0  2.243527  0
O  O81  1  0.70041665  0.58456811  0.50023483  1  -1.138491  0  -0.313576  -0.535298  0  2.245531  0
