# generated using pymatgen
data_Co3P4H30C14(NO5)4
_symmetry_space_group_name_H-M   'P 1'
_cell_length_a   9.58723153
_cell_length_b   9.71189706
_cell_length_c   9.36370255
_cell_angle_alpha   74.42027249
_cell_angle_beta   66.89614351
_cell_angle_gamma   83.86626104
_symmetry_Int_Tables_number   1
_chemical_formula_structural   Co3P4H30C14(NO5)4
_chemical_formula_sum   'Co3 P4 H30 C14 N4 O20'
_cell_volume   772.46331224
_cell_formula_units_Z   1
loop_
 _symmetry_equiv_pos_site_id
 _symmetry_equiv_pos_as_xyz
  1  'x, y, z'
loop_
 _atom_site_type_symbol
 _atom_site_label
 _atom_site_symmetry_multiplicity
 _atom_site_fract_x
 _atom_site_fract_y
 _atom_site_fract_z
 _atom_site_occupancy
 _atom_site_hle17_ddec_charge
 _atom_site_hle17_ddec_spin_density
 _atom_site_hle17_ddec_sum_bond_order
 _atom_site_hle17_magmom
 _atom_site_hse06_10hf_ddec_charge
 _atom_site_hse06_10hf_ddec_spin_density
 _atom_site_hse06_10hf_ddec_sum_bond_order
 _atom_site_hse06_10hf_magmom
 _atom_site_hse06_ddec_charge
 _atom_site_hse06_ddec_spin_density
 _atom_site_hse06_ddec_sum_bond_order
 _atom_site_hse06_magmom
 _atom_site_pbe_cm5_charge
 _atom_site_pbe_ddec_charge
 _atom_site_pbe_ddec_spin_density
 _atom_site_pbe_ddec_sum_bond_order
 _atom_site_pbe_magmom
Co  Co0  1  0.99999541  0.50000122  0.99999987  1  1.162892  -2.883511  1.787388  -2.613  1.134129  -2.865749  2.174345  -2.678  1.207519  -2.914189  2.106703  -2.745  0.643796  1.072722  -2.809728  2.22541  -2.607
Co  Co1  1  0.29620516  0.45235836  0.44269767  1  1.130715  2.839168  1.810818  2.598  1.107845  2.8467  2.190738  2.671  1.181318  2.88922  2.123893  2.739  0.642134  1.043245  2.801087  2.245584  2.603
Co  Co2  1  0.70378579  0.54762511  0.55730666  1  1.130472  2.83886  1.810603  2.598  1.108085  2.846694  2.190401  2.671  1.181559  2.889204  2.123565  2.739  0.642274  1.043532  2.801096  2.245171  2.603
P  P3  1  0.11178286  0.28687059  0.77279860  1  1.372549  -0.001197  4.935917  -0.001  1.212611  -0.001325  5.447991  -0.001  1.262149  -0.001043  5.415726  -0.001  0.309062  1.177223  -0.001571  5.468628  -0.001
P  P4  1  0.88821925  0.71313408  0.22720571  1  1.372606  -0.001198  4.935522  -0.001  1.21275  -0.001327  5.447616  -0.001  1.262274  -0.00104  5.415344  -0.001  0.309181  1.177359  -0.001571  5.468244  -0.001
P  P5  1  0.34642517  0.49811070  0.73641482  1  1.409291  0.000679  4.872555  -0.002  1.26324  0.002477  5.377131  0.0  1.31617  0.001649  5.343366  0.0  0.330154  1.22336  0.003665  5.39999  0.0
P  P6  1  0.65357007  0.50189588  0.26359662  1  1.409277  0.000679  4.872591  -0.002  1.263303  0.00248  5.377237  0.0  1.316218  0.001651  5.343459  0.0  0.33019  1.223431  0.003668  5.400076  0.0
H  H7  1  0.50667284  0.33295593  0.53503792  1  0.38332  -0.000421  0.904042  -0.001  0.357752  -0.000115  0.978974  0.0  0.36947  -0.00024  0.966424  0.0  0.296242  0.349396  2.3e-05  0.987631  0.0
H  H8  1  0.49332447  0.66704264  0.46496474  1  0.383336  -0.000421  0.904073  -0.001  0.357755  -0.000116  0.97902  0.0  0.369471  -0.00024  0.966466  0.0  0.296247  0.349404  2.3e-05  0.98768  0.0
H  H9  1  0.17551542  0.75498553  0.95250812  1  0.34227  0.000164  0.886141  0.0  0.31823  0.000195  0.94983  0.0  0.327323  0.000243  0.942469  0.0  0.321105  0.311457  0.000138  0.955626  0.0
H  H10  1  0.82448746  0.24501535  0.04749119  1  0.342249  0.000164  0.886192  0.0  0.318194  0.000195  0.949879  0.0  0.327287  0.000243  0.942519  0.0  0.321098  0.311419  0.000138  0.955676  0.0
H  H11  1  0.55663621  0.10665961  0.92629318  1  0.098987  -4e-06  0.989039  0.0  0.10973  3e-06  1.059569  0.0  0.111075  -1e-06  1.060492  0.0  0.094442  0.10892  1.9e-05  1.058761  0.0
H  H12  1  0.44336259  0.89333227  0.07371055  1  0.099057  -6e-06  0.988951  0.0  0.109723  4e-06  1.059579  0.0  0.11107  -0.0  1.060492  0.0  0.094448  0.108911  1.9e-05  1.058772  0.0
H  H13  1  0.55475077  0.30343830  0.86065056  1  0.153039  -0.000199  0.975397  0.0  0.165867  -0.000228  1.029381  0.0  0.16848  -0.000246  1.028577  0.0  0.108823  0.163839  -0.000191  1.030015  0.0
H  H14  1  0.44525378  0.69655254  0.13934357  1  0.153094  -0.000199  0.975385  0.0  0.165914  -0.000228  1.029348  0.0  0.168524  -0.000246  1.028549  0.0  0.108838  0.163884  -0.00019  1.029983  0.0
H  H15  1  0.28700832  0.11382674  0.12859190  1  0.106884  8.1e-05  0.947887  0.0  0.122371  0.000147  1.007781  0.0  0.124471  9.8e-05  1.006911  0.0  0.100473  0.120857  0.000216  1.008423  0.0
H  H16  1  0.71298868  0.88618173  0.87141231  1  0.106906  8.1e-05  0.947978  0.0  0.122385  0.000147  1.007868  0.0  0.124482  9.8e-05  1.007006  0.0  0.100486  0.120875  0.000215  1.008512  0.0
H  H17  1  0.28548163  0.30863524  0.05437103  1  0.146724  0.000116  0.941615  0.0  0.163714  0.000127  0.990859  0.0  0.165655  0.000116  0.990874  0.0  0.115546  0.16211  0.000131  0.991176  0.0
H  H18  1  0.71452918  0.69137144  0.94561901  1  0.146736  0.000115  0.94165  0.0  0.163731  0.000127  0.990866  0.0  0.165673  0.000116  0.99088  0.0  0.11556  0.162132  0.000131  0.991176  0.0
H  H19  1  0.12357882  0.98151490  0.04421972  1  0.1284  6e-06  0.921409  0.0  0.135648  -6e-06  0.984839  0.0  0.139207  1e-06  0.980355  0.0  0.151476  0.132885  -1.4e-05  0.988376  0.0
H  H20  1  0.87642167  0.01848148  0.95578547  1  0.128396  5e-06  0.921396  0.0  0.135648  -6e-06  0.984831  0.0  0.139205  0.0  0.980353  0.0  0.151479  0.132884  -1.4e-05  0.988367  0.0
H  H21  1  0.44058036  0.75884546  0.72057223  1  0.136628  -0.000142  0.963599  0.0  0.143504  -7.6e-05  1.023364  0.0  0.146893  -0.000113  1.021156  0.0  0.134802  0.140731  -2.9e-05  1.02559  0.0
H  H22  1  0.55941528  0.24115646  0.27942679  1  0.136586  -0.000142  0.963601  0.0  0.143461  -7.6e-05  1.02337  0.0  0.146851  -0.000113  1.02116  0.0  0.134762  0.140689  -2.9e-05  1.025602  0.0
H  H23  1  0.55142837  0.03174825  0.65379598  1  0.129599  5e-05  0.922602  0.0  0.141875  9.7e-05  0.97449  0.0  0.144822  5.8e-05  0.973032  0.0  0.135583  0.139607  0.000139  0.975995  0.0
H  H24  1  0.44856782  0.96825906  0.34620202  1  0.12964  5.1e-05  0.922483  0.0  0.141885  9.7e-05  0.974399  0.0  0.144832  5.8e-05  0.972943  0.0  0.1356  0.139617  0.000139  0.975908  0.0
H  H25  1  0.03199515  0.55633612  0.70455206  1  0.42328  0.000333  0.894448  0.001  0.387011  6.4e-05  0.967452  0.0  0.398397  1.6e-05  0.951061  0.0  0.292587  0.37881  0.0001  0.979181  0.0
H  H26  1  0.96801072  0.44365821  0.29544716  1  0.423232  0.000334  0.894524  0.001  0.387027  6.3e-05  0.967444  0.0  0.398412  1.6e-05  0.951053  0.0  0.292569  0.378824  0.0001  0.979174  0.0
H  H27  1  0.06275255  0.70050865  0.73531344  1  0.427084  0.00044  0.810298  0.001  0.410484  0.000206  0.862834  0.0  0.419346  0.00026  0.853082  0.0  0.322289  0.4031  0.000137  0.871755  0.0
H  H28  1  0.93724872  0.29948599  0.26468681  1  0.427046  0.00044  0.810464  0.001  0.41044  0.000206  0.863002  0.0  0.419304  0.00026  0.853253  0.0  0.322306  0.403057  0.000137  0.871927  0.0
H  H29  1  0.08261968  0.60897009  0.34886672  1  0.434524  -4e-05  0.867528  0.0  0.404185  5.5e-05  0.929838  0.0  0.41615  -7.5e-05  0.912487  0.0  0.295983  0.395486  0.000207  0.942446  0.0
H  H30  1  0.91738734  0.39102351  0.65112394  1  0.434528  -3.9e-05  0.86753  0.0  0.40416  5.5e-05  0.92989  0.0  0.416121  -7.5e-05  0.912545  0.0  0.295959  0.395462  0.000207  0.942495  0.0
H  H31  1  0.18951502  0.70893243  0.36860077  1  0.416103  -1.4e-05  0.818224  0.0  0.40556  0.000379  0.865102  0.0  0.414652  0.000263  0.854987  0.0  0.323525  0.398444  0.000585  0.873219  0.001
H  H32  1  0.81048272  0.29105756  0.63140286  1  0.416213  -1.4e-05  0.818012  0.0  0.405655  0.000378  0.86494  0.0  0.414752  0.000262  0.854808  0.0  0.323561  0.398534  0.000583  0.873078  0.001
H  H33  1  0.14921591  0.30171199  0.33668281  1  0.423229  -0.000658  0.872178  -0.001  0.399349  -0.000447  0.924406  0.0  0.410273  -0.000408  0.908591  0.0  0.292801  0.390813  -0.000473  0.936769  0.0
H  H34  1  0.85078608  0.69828453  0.66332123  1  0.423315  -0.000658  0.872057  -0.001  0.399415  -0.000448  0.924325  0.0  0.410344  -0.000408  0.908502  0.0  0.292841  0.39088  -0.000473  0.936688  0.0
H  H35  1  0.17186297  0.21751169  0.49900649  1  0.420944  -0.000204  0.855857  0.0  0.394098  0.000235  0.92751  0.0  0.405194  0.000114  0.911244  0.0  0.296085  0.385678  0.000336  0.939891  0.001
H  H36  1  0.82814538  0.78248728  0.50100037  1  0.420889  -0.000204  0.855929  0.0  0.3941  0.000235  0.927476  0.0  0.405195  0.000114  0.911213  0.0  0.296115  0.385687  0.000336  0.939846  0.001
C  C37  1  0.31531680  0.30778954  0.74235943  1  -0.285122  -0.000333  3.609999  -0.001  -0.255157  0.000386  3.860288  0.0  -0.26343  0.000132  3.870599  0.0  0.048586  -0.248908  0.000551  3.853099  0.0
C  C38  1  0.68468290  0.69222226  0.25764625  1  -0.285132  -0.000328  3.610203  -0.001  -0.255353  0.000386  3.860722  0.0  -0.263575  0.000121  3.870947  0.0  0.048521  -0.249138  0.000552  3.853634  0.0
C  C39  1  0.35971229  0.19243168  0.86339604  1  0.206213  0.000492  3.639002  0.0  0.203524  0.000348  3.890257  0.0  0.20811  0.000171  3.908419  0.0  0.07972  0.199887  0.000538  3.878439  0.0
C  C40  1  0.64028856  0.80757256  0.13660329  1  0.206167  0.000491  3.638984  0.0  0.203475  0.000347  3.890342  0.0  0.208054  0.000171  3.908474  0.0  0.079705  0.19984  0.000538  3.878497  0.0
C  C41  1  0.49120846  0.20431808  0.91077476  1  -0.248607  8e-06  3.613157  0.0  -0.298715  0.000121  3.871284  0.0  -0.301883  2.4e-05  3.88422  0.0  -0.183382  -0.296178  0.000278  3.861822  0.0
C  C42  1  0.50879463  0.79567466  0.08922060  1  -0.248761  1.1e-05  3.613094  0.0  -0.298791  0.000121  3.871208  0.0  -0.301959  2.3e-05  3.88416  0.0  -0.183433  -0.296249  0.000279  3.861741  0.0
C  C43  1  0.33089738  0.20674085  0.02861151  1  -0.21708  0.000683  3.620041  0.001  -0.266516  0.000616  3.877091  0.001  -0.26909  0.000441  3.889947  0.001  -0.168593  -0.264498  0.000763  3.867971  0.001
C  C44  1  0.66910691  0.79326192  0.97138424  1  -0.217072  0.000686  3.620165  0.001  -0.266497  0.000616  3.877197  0.001  -0.269063  0.000441  3.890027  0.001  -0.168612  -0.264483  0.000763  3.868076  0.001
C  C45  1  0.22448800  0.96048369  0.94645556  1  0.221696  -5e-06  3.539474  0.0  0.147244  -4.6e-05  3.812169  0.0  0.163807  -6.3e-05  3.819511  0.0  0.181938  0.136375  -3.8e-05  3.807416  0.0
C  C46  1  0.77551087  0.03951910  0.05354609  1  0.221714  -2e-06  3.539485  0.0  0.147229  -4.5e-05  3.812169  0.0  0.16379  -6.2e-05  3.819514  0.0  0.181902  0.136356  -3.8e-05  3.80741  0.0
C  C47  1  0.39076603  0.84785566  0.77274877  1  0.037157  4.6e-05  3.608562  0.0  -0.002716  4e-05  3.868852  0.0  -7.6e-05  1e-06  3.885779  0.0  0.02616  -0.005064  0.000128  3.859146  0.0
C  C48  1  0.60923171  0.15214801  0.22725040  1  0.037225  4.6e-05  3.608606  0.0  -0.002667  4e-05  3.868854  0.0  -2.8e-05  -2e-06  3.885783  0.0  0.026228  -0.005014  0.000128  3.859155  0.0
C  C49  1  0.44708654  0.98064885  0.74217493  1  -0.017134  5.9e-05  3.624556  0.0  -0.063136  0.000102  3.892705  0.0  -0.061661  4.1e-05  3.910689  0.0  0.022916  -0.064342  0.0002  3.881099  0.0
C  C50  1  0.55291140  0.01935933  0.25781581  1  -0.017225  5.9e-05  3.624589  0.0  -0.063195  0.000103  3.892746  0.0  -0.061725  4.4e-05  3.910734  0.0  0.022836  -0.064395  0.0002  3.881139  0.0
N  N51  1  0.34287159  0.04857078  0.85301913  1  -0.103755  5e-05  3.569488  0.0  -0.01485  4.1e-05  3.787297  0.0  -0.029784  2.8e-05  3.812845  0.0  -0.222766  -0.004808  5.5e-05  3.769782  0.0
N  N52  1  0.65712497  0.95143071  0.14697745  1  -0.103728  4.7e-05  3.569315  0.0  -0.014822  4.2e-05  3.787128  0.0  -0.029753  2.9e-05  3.812669  0.0  -0.222707  -0.004778  5.5e-05  3.769609  0.0
N  N53  1  0.25299521  0.83874575  0.89966747  1  -0.250965  -0.000137  3.418893  0.0  -0.182223  -5.5e-05  3.65529  0.0  -0.197295  2.9e-05  3.668052  0.0  -0.355877  -0.172443  -0.000188  3.648205  0.0
N  N54  1  0.74700775  0.16125339  0.10033424  1  -0.250938  -0.000137  3.418983  0.0  -0.18212  -5.5e-05  3.655309  0.0  -0.197189  2.9e-05  3.66807  0.0  -0.355842  -0.172335  -0.000188  3.648214  0.0
O  O55  1  0.09009089  0.14932132  0.73760000  1  -0.821437  -0.002177  1.809552  -0.004  -0.759826  -0.001846  2.041581  -0.003  -0.785031  -0.001488  2.02484  -0.002  -0.398144  -0.740857  -0.002016  2.053475  -0.003
O  O56  1  0.90991407  0.85068712  0.26239719  1  -0.821454  -0.002176  1.80952  -0.004  -0.759883  -0.001845  2.041532  -0.003  -0.78509  -0.001489  2.024798  -0.002  -0.398176  -0.740914  -0.002017  2.05342  -0.003
O  O57  1  0.01544620  0.30588372  0.94224858  1  -0.83776  -0.031398  2.04265  -0.05  -0.775533  -0.025842  2.322108  -0.036  -0.809508  -0.02138  2.303815  -0.029  -0.371796  -0.749186  -0.030078  2.334094  -0.043
O  O58  1  0.98455013  0.69411720  0.05774307  1  -0.837802  -0.031408  2.042444  -0.05  -0.775575  -0.025845  2.321805  -0.036  -0.809558  -0.02138  2.303542  -0.029  -0.371837  -0.74922  -0.030085  2.333773  -0.043
O  O59  1  0.08768816  0.41856826  0.64264441  1  -0.894527  0.030652  2.167144  0.049  -0.810154  0.025269  2.411498  0.036  -0.846227  0.020891  2.395345  0.029  -0.374016  -0.78153  0.028976  2.42086  0.042
O  O60  1  0.91231742  0.58143014  0.35735861  1  -0.894486  0.030653  2.167076  0.049  -0.810174  0.025268  2.411378  0.036  -0.846249  0.020893  2.395236  0.029  -0.374023  -0.781564  0.028975  2.420742  0.042
O  O61  1  0.50431523  0.51101293  0.73715313  1  -0.803107  0.043766  2.014267  0.07  -0.748001  0.031645  2.290582  0.045  -0.786163  0.024664  2.271692  0.034  -0.3696  -0.716025  0.038509  2.302362  0.056
O  O62  1  0.49567077  0.48899222  0.26286030  1  -0.803175  0.043778  2.014323  0.07  -0.748021  0.031649  2.290598  0.045  -0.786185  0.024665  2.27171  0.034  -0.369603  -0.716025  0.038517  2.302368  0.056
O  O63  1  0.22308431  0.53908885  0.88120317  1  -0.837836  -0.028196  2.05852  -0.042  -0.784793  -0.021918  2.347261  -0.028  -0.819832  -0.018366  2.326136  -0.023  -0.374651  -0.756378  -0.024732  2.361841  -0.033
O  O64  1  0.77690286  0.46090976  0.11880395  1  -0.837711  -0.028191  2.058384  -0.042  -0.784753  -0.021913  2.347175  -0.028  -0.819796  -0.018361  2.326046  -0.023  -0.374632  -0.756336  -0.024726  2.361745  -0.033
O  O65  1  0.33851028  0.58423258  0.57254081  1  -0.87489  0.031121  2.033284  0.051  -0.817467  0.02448  2.300295  0.037  -0.850666  0.019667  2.281457  0.029  -0.38304  -0.789762  0.028923  2.312415  0.043
O  O66  1  0.66148221  0.41578812  0.42746239  1  -0.874864  0.031133  2.033747  0.051  -0.817533  0.024487  2.300802  0.037  -0.850738  0.019674  2.281966  0.029  -0.383073  -0.789839  0.028926  2.31293  0.043
O  O67  1  0.40039220  0.28962302  0.58169550  1  -0.543857  0.027892  2.234858  0.05  -0.502646  0.024117  2.465009  0.039  -0.525674  0.020241  2.456785  0.032  -0.368291  -0.485223  0.027239  2.471001  0.044
O  O68  1  0.59960378  0.71037789  0.41829981  1  -0.543798  0.027891  2.235011  0.05  -0.502556  0.024114  2.465228  0.039  -0.525592  0.020238  2.45699  0.032  -0.368242  -0.485134  0.027238  2.471204  0.044
O  O69  1  0.98095663  0.63520093  0.76120366  1  -0.804802  -0.020513  1.876641  -0.035  -0.759383  -0.018329  2.060218  -0.028  -0.783009  -0.015127  2.030023  -0.023  -0.546396  -0.741156  -0.021252  2.083459  -0.032
O  O70  1  0.01904186  0.36479895  0.23879051  1  -0.8047  -0.020512  1.876889  -0.035  -0.759327  -0.018328  2.06037  -0.028  -0.782951  -0.015127  2.030177  -0.023  -0.546391  -0.741104  -0.021251  2.083629  -0.032
O  O71  1  0.19125443  0.62545936  0.32933825  1  -0.788059  0.022716  1.902995  0.042  -0.753663  0.020545  2.096073  0.033  -0.775093  0.017416  2.061001  0.027  -0.56191  -0.73748  0.023092  2.122516  0.036
O  O72  1  0.80875159  0.37453045  0.67066574  1  -0.788125  0.022717  1.902809  0.042  -0.753763  0.020544  2.095914  0.033  -0.775205  0.017416  2.06088  0.027  -0.561911  -0.737586  0.023095  2.122355  0.036
O  O73  1  0.22356777  0.27877059  0.38973392  1  -0.801138  0.029012  1.891356  0.047  -0.766191  0.024713  2.078645  0.036  -0.792354  0.01987  2.044789  0.029  -0.565936  -0.744816  0.029401  2.103796  0.043
O  O74  1  0.77643801  0.72121763  0.61026509  1  -0.801161  0.029008  1.8913  0.047  -0.766304  0.024708  2.07858  0.036  -0.792469  0.019865  2.04472  0.029  -0.566052  -0.744953  0.029393  2.103732  0.043
