# generated using pymatgen
data_BiH10C8S2Cl3
_symmetry_space_group_name_H-M   'P 1'
_cell_length_a   7.19768614
_cell_length_b   8.90218204
_cell_length_c   20.82362875
_cell_angle_alpha   98.04199274
_cell_angle_beta   90.00012833
_cell_angle_gamma   89.99993449
_symmetry_Int_Tables_number   1
_chemical_formula_structural   BiH10C8S2Cl3
_chemical_formula_sum   'Bi4 H40 C32 S8 Cl12'
_cell_volume   1321.15481155
_cell_formula_units_Z   4
loop_
 _symmetry_equiv_pos_site_id
 _symmetry_equiv_pos_as_xyz
  1  'x, y, z'
loop_
 _atom_site_type_symbol
 _atom_site_label
 _atom_site_symmetry_multiplicity
 _atom_site_fract_x
 _atom_site_fract_y
 _atom_site_fract_z
 _atom_site_occupancy
 _atom_site_hle17_bader_spin_density
 _atom_site_hle17_ddec_charge
 _atom_site_hle17_ddec_spin_density
 _atom_site_hle17_ddec_sum_bond_order
 _atom_site_hle17_magmom
 _atom_site_hse06_10hf_bader_spin_density
 _atom_site_hse06_10hf_ddec_charge
 _atom_site_hse06_10hf_ddec_spin_density
 _atom_site_hse06_10hf_ddec_sum_bond_order
 _atom_site_hse06_10hf_magmom
 _atom_site_hse06_bader_spin_density
 _atom_site_hse06_ddec_charge
 _atom_site_hse06_ddec_spin_density
 _atom_site_hse06_ddec_sum_bond_order
 _atom_site_hse06_magmom
 _atom_site_pbe_bader_spin_density
 _atom_site_pbe_cm5_charge
 _atom_site_pbe_ddec_charge
 _atom_site_pbe_ddec_spin_density
 _atom_site_pbe_ddec_sum_bond_order
 _atom_site_pbe_magmom
Bi  Bi0  1  0.75285727  0.52746271  0.55689776  1  0  1.173491  0  2.557229  0  0  1.014834  0  3.044471  0  0  1.074718  0  3.015797  0  0  0.561541  0.973451  0  3.063656  0
Bi  Bi1  1  0.25285481  0.47254700  0.94310460  1  0  1.173462  0  2.557271  0  0  1.014796  0  3.044531  0  0  1.074678  0  3.015857  0  0  0.561538  0.973412  0  3.063715  0
Bi  Bi2  1  0.24713747  0.47253543  0.44310122  1  0  1.173493  0  2.557216  0  0  1.014831  0  3.044467  0  0  1.074714  0  3.015794  0  0  0.561555  0.973455  0  3.063631  0
Bi  Bi3  1  0.74714410  0.52745340  0.05689548  1  0  1.173469  0  2.557265  0  0  1.014805  0  3.044523  0  0  1.074687  0  3.015849  0  0  0.561541  0.97342  0  3.063713  0
H  H4  1  0.34305258  0.51005598  0.74583800  1  0  0.121546  0  0.999667  0  0  0.13411  0  1.071957  0  0  0.135936  0  1.071189  0  0  0.077979  0.132722  0  1.072613  0
H  H5  1  0.84305497  0.48994236  0.75416132  1  0  0.121546  0  0.999672  0  0  0.134117  0  1.071957  0  0  0.135944  0  1.071189  0  0  0.077972  0.132728  0  1.072615  0
H  H6  1  0.65694355  0.48994443  0.25416160  1  0  0.121537  0  0.999674  0  0  0.134101  0  1.071971  0  0  0.135928  0  1.071203  0  0  0.077978  0.13271  0  1.07263  0
H  H7  1  0.15694672  0.51005580  0.24583718  1  0  0.121517  0  0.999727  0  0  0.134083  0  1.072012  0  0  0.135909  0  1.071245  0  0  0.077959  0.132694  0  1.072669  0
H  H8  1  0.46437620  0.37893882  0.68774646  1  0  0.134465  0  0.940427  0  0  0.155481  0  0.999499  0  0  0.156622  0  0.999609  0  0  0.096927  0.154593  0  0.999531  0
H  H9  1  0.96437462  0.62106056  0.81225303  1  0  0.134485  0  0.940424  0  0  0.155498  0  0.999503  0  0  0.156639  0  0.999613  0  0  0.096931  0.154611  0  0.999529  0
H  H10  1  0.53561994  0.62106273  0.31225274  1  0  0.134423  0  0.940466  0  0  0.155446  0  0.999544  0  0  0.156586  0  0.999653  0  0  0.09691  0.154556  0  0.999574  0
H  H11  1  0.03562152  0.37893986  0.18774609  1  0  0.134463  0  0.940411  0  0  0.155473  0  0.999496  0  0  0.156613  0  0.999606  0  0  0.096934  0.154587  0  0.999523  0
H  H12  1  0.28286214  0.49193530  0.66026706  1  0  0.138118  0  0.958357  0  0  0.151072  0  1.028407  0  0  0.152862  0  1.027955  0  0  0.088482  0.149714  0  1.028835  0
H  H13  1  0.78286367  0.50806309  0.83973174  1  0  0.138131  0  0.958384  0  0  0.151084  0  1.028439  0  0  0.152874  0  1.027987  0  0  0.088478  0.149727  0  1.028866  0
H  H14  1  0.71713260  0.50806625  0.33973213  1  0  0.138102  0  0.958432  0  0  0.151051  0  1.028497  0  0  0.152841  0  1.028045  0  0  0.088458  0.149693  0  1.028918  0
H  H15  1  0.21713524  0.49193620  0.16026731  1  0  0.13812  0  0.958366  0  0  0.15107  0  1.028422  0  0  0.152861  0  1.027969  0  0  0.088487  0.149713  0  1.028849  0
H  H16  1  0.20815487  0.74114678  0.73498423  1  0  0.101957  0  0.949597  0  0  0.116735  0  1.004612  0  0  0.119049  0  1.004029  0  0  0.101175  0.115078  0  1.005085  0
H  H17  1  0.70815626  0.25885051  0.76501540  1  0  0.101962  0  0.949562  0  0  0.116714  0  1.004614  0  0  0.11903  0  1.004029  0  0  0.101165  0.115057  0  1.005097  0
H  H18  1  0.79184543  0.25885361  0.26501681  1  0  0.101938  0  0.949621  0  0  0.116721  0  1.004622  0  0  0.119035  0  1.00404  0  0  0.101173  0.115062  0  1.005099  0
H  H19  1  0.29184404  0.74114990  0.23498468  1  0  0.10198  0  0.949538  0  0  0.116729  0  1.004594  0  0  0.119044  0  1.004007  0  0  0.101157  0.115074  0  1.005072  0
H  H20  1  0.03963940  0.97747814  0.72210806  1  0  0.08477  0  0.988018  0  0  0.090848  0  1.058884  0  0  0.092551  0  1.059907  0  0  0.091869  0.089462  0  1.058679  0
H  H21  1  0.53963842  0.02252154  0.77789159  1  0  0.084746  0  0.988018  0  0  0.090837  0  1.058866  0  0  0.092539  0  1.05989  0  0  0.091869  0.089449  0  1.058671  0
H  H22  1  0.96036368  0.02252338  0.27789353  1  0  0.084761  0  0.987992  0  0  0.090872  0  1.058794  0  0  0.092578  0  1.059813  0  0  0.091887  0.089487  0  1.058599  0
H  H23  1  0.46036327  0.97747887  0.22210753  1  0  0.084772  0  0.988039  0  0  0.09086  0  1.058887  0  0  0.092563  0  1.05991  0  0  0.091887  0.089476  0  1.05869  0
H  H24  1  0.17985425  0.16457654  0.65744917  1  0  0.096632  0  0.966103  0  0  0.105824  0  1.029707  0  0  0.108671  0  1.0283  0  0  0.089472  0.103779  0  1.03077  0
H  H25  1  0.67985396  0.83542076  0.84255092  1  0  0.096629  0  0.966103  0  0  0.105794  0  1.029738  0  0  0.108642  0  1.02833  0  0  0.089459  0.103745  0  1.030795  0
H  H26  1  0.82014466  0.83542497  0.34255290  1  0  0.096594  0  0.966098  0  0  0.105824  0  1.029673  0  0  0.108673  0  1.028264  0  0  0.089463  0.103774  0  1.030734  0
H  H27  1  0.32014773  0.16457966  0.15744724  1  0  0.096566  0  0.966071  0  0  0.105787  0  1.029643  0  0  0.108635  0  1.028234  0  0  0.089436  0.103738  0  1.030705  0
H  H28  1  0.49146677  0.11785810  0.60897112  1  0  0.097535  0  0.990376  0  0  0.106922  0  1.057407  0  0  0.109721  0  1.056135  0  0  0.089437  0.104872  0  1.058465  0
H  H29  1  0.99146673  0.88214125  0.89102982  1  0  0.097553  0  0.990366  0  0  0.106924  0  1.057402  0  0  0.109723  0  1.056136  0  0  0.089443  0.104872  0  1.058461  0
H  H30  1  0.50853353  0.88214231  0.39102896  1  0  0.09756  0  0.990407  0  0  0.106942  0  1.057429  0  0  0.109743  0  1.056159  0  0  0.089447  0.104892  0  1.058487  0
H  H31  1  0.00853357  0.11786030  0.10896937  1  0  0.097571  0  0.990369  0  0  0.106938  0  1.057416  0  0  0.109739  0  1.056148  0  0  0.089434  0.104892  0  1.058471  0
H  H32  1  0.64875117  0.95312765  0.51575805  1  0  0.131323  0  0.961065  0  0  0.148655  0  1.024814  0  0  0.149989  0  1.024941  0  0  0.090042  0.147717  0  1.024673  0
H  H33  1  0.14875095  0.04686966  0.98424347  1  0  0.131311  0  0.961004  0  0  0.148648  0  1.024757  0  0  0.14998  0  1.024883  0  0  0.090042  0.147708  0  1.024616  0
H  H34  1  0.35125052  0.04686934  0.48424278  1  0  0.131336  0  0.960977  0  0  0.148663  0  1.024741  0  0  0.149996  0  1.02487  0  0  0.090062  0.147727  0  1.024596  0
H  H35  1  0.85124936  0.95313075  0.01575662  1  0  0.131309  0  0.96101  0  0  0.148652  0  1.024756  0  0  0.149985  0  1.024883  0  0  0.090047  0.147713  0  1.024612  0
H  H36  1  0.89447461  0.92840182  0.52029768  1  0  0.137444  0  0.945078  0  0  0.15914  0  1.000362  0  0  0.160364  0  1.000418  0  0  0.097272  0.158217  0  1.000369  0
H  H37  1  0.39447433  0.07159646  0.97970360  1  0  0.137446  0  0.945018  0  0  0.159109  0  1.000357  0  0  0.160333  0  1.000414  0  0  0.097274  0.15819  0  1.000358  0
H  H38  1  0.10552569  0.07159403  0.47970356  1  0  0.13748  0  0.945011  0  0  0.159173  0  1.000306  0  0  0.160397  0  1.000363  0  0  0.097288  0.158253  0  1.000311  0
H  H39  1  0.60552597  0.92840509  0.02029559  1  0  0.137482  0  0.944992  0  0  0.159161  0  1.00031  0  0  0.160385  0  1.000367  0  0  0.097287  0.158239  0  1.000313  0
H  H40  1  0.78980419  0.09428550  0.56476636  1  0  0.130373  0  0.980014  0  0  0.14328  0  1.050754  0  0  0.145079  0  1.04996  0  0  0.082105  0.141946  0  1.051365  0
H  H41  1  0.28980387  0.90571171  0.93523526  1  0  0.13036  0  0.980011  0  0  0.143271  0  1.050748  0  0  0.145071  0  1.049952  0  0  0.082084  0.141937  0  1.051355  0
H  H42  1  0.21019750  0.90571149  0.43523447  1  0  0.130326  0  0.980023  0  0  0.143236  0  1.050773  0  0  0.145035  0  1.049979  0  0  0.082067  0.1419  0  1.051387  0
H  H43  1  0.71019782  0.09428983  0.06476441  1  0  0.130436  0  0.980005  0  0  0.143333  0  1.050743  0  0  0.145133  0  1.049949  0  0  0.082118  0.141998  0  1.051355  0
C  C44  1  0.39432725  0.48935980  0.69590443  1  0  -0.328246  0  3.624558  0  0  -0.402593  0  3.876049  0  0  -0.403067  0  3.883636  0  0  -0.234341  -0.402026  0  3.870917  0
C  C45  1  0.89432715  0.51063736  0.80409486  1  0  -0.328287  0  3.624605  0  0  -0.402598  0  3.875986  0  0  -0.403072  0  3.883572  0  0  -0.234337  -0.402034  0  3.870853  0
C  C46  1  0.60567028  0.51063947  0.30409510  1  0  -0.328176  0  3.624657  0  0  -0.402478  0  3.876015  0  0  -0.402951  0  3.883602  0  0  -0.234297  -0.401911  0  3.870876  0
C  C47  1  0.10567315  0.48936191  0.19590515  1  0  -0.328216  0  3.624596  0  0  -0.402552  0  3.876066  0  0  -0.403025  0  3.88365  0  0  -0.234324  -0.401989  0  3.870933  0
C  C48  1  0.44359698  0.79296150  0.67765595  1  0  -0.010841  0  3.772374  0  0  0.002324  0  4.029143  0  0  0.002909  0  4.052204  0  0  -0.017154  0.001974  0  4.013451  0
C  C49  1  0.94359881  0.20703676  0.82234345  1  0  -0.010914  0  3.772418  0  0  0.002162  0  4.029292  0  0  0.002745  0  4.052353  0  0  -0.017179  0.001816  0  4.013598  0
C  C50  1  0.55640193  0.20704002  0.32234565  1  0  -0.010854  0  3.772332  0  0  0.002251  0  4.029187  0  0  0.002839  0  4.052248  0  0  -0.017169  0.001909  0  4.013491  0
C  C51  1  0.05640149  0.79296480  0.17765526  1  0  -0.010942  0  3.772418  0  0  0.002129  0  4.029303  0  0  0.00271  0  4.052365  0  0  -0.01719  0.001783  0  4.01361  0
C  C52  1  0.26965782  0.82254550  0.70675519  1  0  -0.092473  0  3.736145  0  0  -0.112725  0  3.986443  0  0  -0.114263  0  4.005458  0  0  -0.095712  -0.111573  0  3.973472  0
C  C53  1  0.76965534  0.17745289  0.79324408  1  0  -0.092403  0  3.735988  0  0  -0.112603  0  3.986304  0  0  -0.114143  0  4.005322  0  0  -0.095676  -0.111454  0  3.973339  0
C  C54  1  0.73034665  0.17745715  0.29324695  1  0  -0.092422  0  3.736042  0  0  -0.112655  0  3.986356  0  0  -0.114197  0  4.005372  0  0  -0.095639  -0.1115  0  3.973383  0
C  C55  1  0.23034080  0.82254979  0.20675566  1  0  -0.092366  0  3.73591  0  0  -0.112539  0  3.986187  0  0  -0.114085  0  4.005223  0  0  -0.095615  -0.11139  0  3.973223  0
C  C56  1  0.17556497  0.95612299  0.69981752  1  0  -0.065127  0  3.782188  0  0  -0.086052  0  4.046288  0  0  -0.086709  0  4.066758  0  0  -0.098222  -0.085754  0  4.033052  0
C  C57  1  0.67556271  0.04387659  0.80018271  1  0  -0.065161  0  3.782164  0  0  -0.086099  0  4.046266  0  0  -0.086755  0  4.066736  0  0  -0.098258  -0.085798  0  4.033034  0
C  C58  1  0.82443950  0.04388080  0.30018421  1  0  -0.06518  0  3.782169  0  0  -0.086131  0  4.046316  0  0  -0.086788  0  4.066785  0  0  -0.098296  -0.085839  0  4.033096  0
C  C59  1  0.32443759  0.95612835  0.19981813  1  0  -0.065265  0  3.782336  0  0  -0.086222  0  4.04647  0  0  -0.08688  0  4.066938  0  0  -0.09829  -0.085923  0  4.033245  0
C  C60  1  0.25456307  0.06115594  0.66389529  1  0  -0.058938  0  3.744674  0  0  -0.072887  0  3.995155  0  0  -0.074021  0  4.015008  0  0  -0.095374  -0.072127  0  3.981964  0
C  C61  1  0.75456260  0.93884244  0.83610493  1  0  -0.058933  0  3.744687  0  0  -0.072862  0  3.995173  0  0  -0.073995  0  4.015026  0  0  -0.095343  -0.072096  0  3.981965  0
C  C62  1  0.74544001  0.93884671  0.33610637  1  0  -0.058808  0  3.744598  0  0  -0.072796  0  3.995092  0  0  -0.07393  0  4.014944  0  0  -0.095331  -0.072026  0  3.98189  0
C  C63  1  0.24543909  0.06115568  0.16389597  1  0  -0.058759  0  3.744637  0  0  -0.072714  0  3.995118  0  0  -0.073847  0  4.014971  0  0  -0.09531  -0.071948  0  3.981917  0
C  C64  1  0.42972346  0.03438587  0.63608586  1  0  -0.101738  0  3.742111  0  0  -0.118945  0  3.985164  0  0  -0.121582  0  4.006341  0  0  -0.09805  -0.117211  0  3.970982  0
C  C65  1  0.92972452  0.96561013  0.86391387  1  0  -0.101775  0  3.742111  0  0  -0.118951  0  3.985145  0  0  -0.121595  0  4.00633  0  0  -0.09808  -0.117213  0  3.970952  0
C  C66  1  0.57027545  0.96561566  0.36391477  1  0  -0.101925  0  3.742206  0  0  -0.119122  0  3.985266  0  0  -0.121765  0  4.006449  0  0  -0.098104  -0.117385  0  3.97108  0
C  C67  1  0.07027439  0.03438575  0.13608545  1  0  -0.101858  0  3.742194  0  0  -0.119053  0  3.985261  0  0  -0.121697  0  4.006444  0  0  -0.098058  -0.11732  0  3.971073  0
C  C68  1  0.52626225  0.90111182  0.64301794  1  0  -0.012964  0  3.791884  0  0  0.000122  0  4.048917  0  0  0.00061  0  4.072985  0  0  -0.017789  -0.000377  0  4.032795  0
C  C69  1  0.02626669  0.09888448  0.85698102  1  0  -0.012904  0  3.791929  0  0  0.000198  0  4.048994  0  0  0.000689  0  4.073062  0  0  -0.017775  -0.000302  0  4.032866  0
C  C70  1  0.47373527  0.09888859  0.35698215  1  0  -0.012729  0  3.79188  0  0  0.000353  0  4.04895  0  0  0.000841  0  4.07302  0  0  -0.017743  -0.000158  0  4.032838  0
C  C71  1  0.97373917  0.90111594  0.14301810  1  0  -0.01286  0  3.79202  0  0  0.00024  0  4.049082  0  0  0.000732  0  4.073149  0  0  -0.017793  -0.000256  0  4.032956  0
C  C72  1  0.77093913  0.97340200  0.54708260  1  0  -0.319427  0  3.606481  0  0  -0.391452  0  3.851839  0  0  -0.391655  0  3.859025  0  0  -0.230477  -0.391016  0  3.84682  0
C  C73  1  0.27093457  0.02659411  0.95291749  1  0  -0.319399  0  3.606304  0  0  -0.391406  0  3.851688  0  0  -0.391609  0  3.858874  0  0  -0.230473  -0.390975  0  3.846665  0
C  C74  1  0.22906256  0.02659387  0.45291768  1  0  -0.319391  0  3.606273  0  0  -0.391411  0  3.851631  0  0  -0.391613  0  3.858818  0  0  -0.230462  -0.390978  0  3.84661  0
C  C75  1  0.72906573  0.97340743  0.04708218  1  0  -0.31948  0  3.606361  0  0  -0.391487  0  3.851712  0  0  -0.391691  0  3.858898  0  0  -0.230491  -0.391051  0  3.846686  0
S  S76  1  0.57093109  0.62681406  0.68513313  1  0  0.041994  0  2.688249  0  0  0.070315  0  3.04698  0  0  0.061575  0  3.05217  0  0  0.044  0.07637  0  3.043325  0
S  S77  1  0.07093072  0.37318445  0.81486744  1  0  0.041994  0  2.68832  0  0  0.070347  0  3.047075  0  0  0.061607  0  3.052266  0  0  0.043998  0.076399  0  3.043427  0
S  S78  1  0.42906782  0.37318522  0.31486592  1  0  0.041969  0  2.688349  0  0  0.070303  0  3.047091  0  0  0.061562  0  3.052283  0  0  0.043992  0.076356  0  3.043431  0
S  S79  1  0.92907097  0.62681596  0.18513169  1  0  0.041983  0  2.688266  0  0  0.070325  0  3.047034  0  0  0.061587  0  3.052225  0  0  0.043981  0.076381  0  3.043383  0
S  S80  1  0.75435354  0.86644794  0.61425535  1  0  0.041335  0  2.660727  0  0  0.067088  0  3.016513  0  0  0.057974  0  3.02235  0  0  0.037002  0.073284  0  3.013175  0
S  S81  1  0.25435256  0.13354931  0.88574527  1  0  0.041303  0  2.660766  0  0  0.067061  0  3.016547  0  0  0.057946  0  3.022385  0  0  0.037001  0.073254  0  3.013214  0
S  S82  1  0.24564676  0.13354792  0.38574493  1  0  0.041176  0  2.660793  0  0  0.066948  0  3.016562  0  0  0.057835  0  3.022398  0  0  0.036941  0.073145  0  3.013231  0
S  S83  1  0.74564774  0.86645110  0.11425433  1  0  0.041221  0  2.660739  0  0  0.066987  0  3.016505  0  0  0.057874  0  3.022339  0  0  0.03695  0.07318  0  3.013171  0
Cl  Cl84  1  0.89269008  0.35213517  0.63430567  1  0  -0.485491  0  0.918687  0  0  -0.436309  0  1.153148  0  0  -0.450875  0  1.139689  0  0  -0.241569  -0.425849  0  1.162246  0
Cl  Cl85  1  0.39268827  0.64786197  0.86569554  1  0  -0.485487  0  0.918745  0  0  -0.436296  0  1.153204  0  0  -0.450855  0  1.139733  0  0  -0.241567  -0.425838  0  1.162299  0
Cl  Cl86  1  0.10730883  0.64786523  0.36569441  1  0  -0.485466  0  0.918669  0  0  -0.436286  0  1.153139  0  0  -0.45085  0  1.139678  0  0  -0.241571  -0.42583  0  1.162229  0
Cl  Cl87  1  0.60731342  0.35213729  0.13430495  1  0  -0.485475  0  0.918721  0  0  -0.436295  0  1.153186  0  0  -0.450854  0  1.139714  0  0  -0.241557  -0.425835  0  1.162284  0
Cl  Cl88  1  0.89239774  0.34027028  0.45166286  1  0  -0.474821  0  1.05761  0  0  -0.421857  0  1.310894  0  0  -0.442275  0  1.301647  0  0  -0.213209  -0.407583  0  1.317106  0
Cl  Cl89  1  0.39239942  0.65972978  0.04833657  1  0  -0.474778  0  1.057592  0  0  -0.421804  0  1.310862  0  0  -0.44222  0  1.301615  0  0  -0.213183  -0.407528  0  1.317079  0
Cl  Cl90  1  0.10760673  0.65972334  0.54833536  1  0  -0.474788  0  1.057562  0  0  -0.421822  0  1.310846  0  0  -0.442239  0  1.301599  0  0  -0.213203  -0.407549  0  1.317065  0
Cl  Cl91  1  0.60760644  0.34027176  0.95166358  1  0  -0.474778  0  1.057564  0  0  -0.421818  0  1.310861  0  0  -0.442236  0  1.301614  0  0  -0.213189  -0.407542  0  1.31708  0
Cl  Cl92  1  0.45789310  0.33472473  0.53762811  1  0  -0.480917  0  1.058779  0  0  -0.423953  0  1.319072  0  0  -0.444205  0  1.307662  0  0  -0.205398  -0.409685  0  1.326611  0
Cl  Cl93  1  0.95788965  0.66527809  0.96236967  1  0  -0.480884  0  1.058764  0  0  -0.423925  0  1.319065  0  0  -0.444178  0  1.307657  0  0  -0.205388  -0.409654  0  1.3266  0
Cl  Cl94  1  0.54210720  0.66527456  0.46237047  1  0  -0.480943  0  1.058754  0  0  -0.423978  0  1.319034  0  0  -0.44423  0  1.307626  0  0  -0.205416  -0.409709  0  1.326568  0
Cl  Cl95  1  0.04211065  0.33472118  0.03763035  1  0  -0.480901  0  1.058761  0  0  -0.423929  0  1.319054  0  0  -0.444182  0  1.307645  0  0  -0.205395  -0.409658  0  1.326592  0
