# generated using pymatgen
data_ZnC16S2NCl6(O2F)2
_symmetry_space_group_name_H-M   'P 1'
_cell_length_a   12.62600886
_cell_length_b   12.62548498
_cell_length_c   38.25713007
_cell_angle_alpha   91.14280188
_cell_angle_beta   90.01136572
_cell_angle_gamma   89.94197747
_symmetry_Int_Tables_number   1
_chemical_formula_structural   ZnC16S2NCl6(O2F)2
_chemical_formula_sum   'Zn4 C64 S8 N4 Cl24 O16 F8'
_cell_volume   6097.33313604
_cell_formula_units_Z   4
loop_
 _symmetry_equiv_pos_site_id
 _symmetry_equiv_pos_as_xyz
  1  'x, y, z'
loop_
 _atom_site_type_symbol
 _atom_site_label
 _atom_site_symmetry_multiplicity
 _atom_site_fract_x
 _atom_site_fract_y
 _atom_site_fract_z
 _atom_site_occupancy
 _atom_site_pbe_bader_charge
 _atom_site_pbe_bader_spin_density
 _atom_site_pbe_cm5_charge
 _atom_site_pbe_ddec_charge
 _atom_site_pbe_ddec_spin_density
 _atom_site_pbe_ddec_sum_bond_order
 _atom_site_pbe_magmom
Zn  Zn0  1  0.49901986  0.49838977  0.03990823  1  1.331507  0  0.674938  0.910373  0  2.258163  0
Zn  Zn1  1  0.50339111  0.49917607  0.96007206  1  1.317908  0  0.674879  0.910355  0  2.258572  0
Zn  Zn2  1  0.49908523  0.50171583  0.46010511  1  1.332716  0  0.675044  0.910724  0  2.257235  0
Zn  Zn3  1  0.50352143  0.50090177  0.53995106  1  1.31691  0  0.674725  0.909952  0  2.258629  0
C  C4  1  0.30092526  0.49968852  0.98579690  1  1.577588  0  0.205621  0.630599  0  4.190238  0
C  C5  1  0.50067005  0.69953328  0.01466282  1  1.573394  0  0.205695  0.630959  0  4.190574  0
C  C6  1  0.70317121  0.50178810  0.98865119  1  1.545734  0  0.206343  0.632088  0  4.190811  0
C  C7  1  0.49805457  0.29701518  0.01092329  1  1.641958  0  0.205867  0.63173  0  4.193912  0
C  C8  1  0.30103227  0.50050909  0.51422297  1  1.577121  0  0.205123  0.629732  0  4.192567  0
C  C9  1  0.50086527  0.30057429  0.48535050  1  1.569159  0  0.205382  0.630516  0  4.190338  0
C  C10  1  0.70329083  0.49816493  0.51136027  1  1.547815  0  0.205606  0.631111  0  4.193056  0
C  C11  1  0.49797539  0.70306467  0.48912705  1  1.561151  0  0.206322  0.632658  0  4.191976  0
C  C12  1  0.58227694  0.52946920  0.38111780  1  0.645819  0  0.144699  0.233  0  4.064157  0
C  C13  1  0.58589515  0.52756846  0.34434923  1  0.16652  0  0.01105  0.003043  0  4.0338  0
C  C14  1  0.40593605  0.48013020  0.38123813  1  0.649002  0  0.145271  0.238102  0  4.052395  0
C  C15  1  0.40088142  0.48099419  0.34451726  1  0.155591  0  0.010334  0.002293  0  4.032719  0
C  C16  1  0.49313942  0.50365610  0.32563439  1  0.155642  0  -0.007089  0.017212  0  4.024396  0
C  C17  1  0.49285232  0.50193443  0.28681061  1  0.135052  0  -0.022195  -0.028556  0  4.022625  0
C  C18  1  0.49412901  0.40489024  0.26823035  1  0.033031  0  0.008927  0.05044  0  4.034973  0
C  C19  1  0.49163072  0.59707975  0.26842209  1  0.149893  0  0.008916  0.050788  0  4.034407  0
C  C20  1  0.40590572  0.51991486  0.11868383  1  0.642972  0  0.145649  0.238572  0  4.053074  0
C  C21  1  0.40089857  0.51905419  0.15540743  1  0.160514  0  0.010059  0.001882  0  4.03286  0
C  C22  1  0.58234577  0.47054497  0.11881236  1  0.638396  0  0.144926  0.233541  0  4.064303  0
C  C23  1  0.58603556  0.47257010  0.15557896  1  0.169773  0  0.01062  0.002165  0  4.034388  0
C  C24  1  0.49324072  0.49645158  0.17429282  1  0.151523  0  -0.00691  0.017454  0  4.024665  0
C  C25  1  0.49296233  0.49819467  0.21311578  1  0.132244  0  -0.021952  -0.027972  0  4.022637  0
C  C26  1  0.49404031  0.59524884  0.23169773  1  0.036619  0  0.009073  0.050478  0  4.03431  0
C  C27  1  0.49187283  0.40305438  0.23150347  1  0.151174  0  0.008592  0.05042  0  4.034513  0
C  C28  1  0.52858291  0.58508912  0.61934985  1  0.698364  0  0.144458  0.232239  0  4.064172  0
C  C29  1  0.52659598  0.58964783  0.65611345  1  0.134161  0  0.010573  0.002934  0  4.031874  0
C  C30  1  0.48044953  0.40833378  0.61829036  1  0.735701  0  0.145628  0.238741  0  4.049498  0
C  C31  1  0.48110691  0.40432479  0.65501358  1  0.123016  0  0.010801  0.002939  0  4.031283  0
C  C32  1  0.50361499  0.49718035  0.67435528  1  0.110057  0  -0.007732  0.016614  0  4.023853  0
C  C33  1  0.50341143  0.49808191  0.71317159  1  0.14029  0  -0.021596  -0.028549  0  4.023278  0
C  C34  1  0.40730733  0.50027351  0.73163075  1  0.150405  0  0.008588  0.050606  0  4.0342  0
C  C35  1  0.59950561  0.49778692  0.73166291  1  0.026242  0  0.008556  0.050302  0  4.035304  0
C  C36  1  0.52816809  0.41499129  0.88066852  1  0.696003  0  0.144351  0.23285  0  4.063368  0
C  C37  1  0.52628047  0.41043052  0.84390618  1  0.136806  0  0.01049  0.003008  0  4.031746  0
C  C38  1  0.48030753  0.59189832  0.88171342  1  0.738988  0  0.145331  0.238955  0  4.050106  0
C  C39  1  0.48109718  0.59595185  0.84498950  1  0.119335  0  0.011021  0.002873  0  4.031404  0
C  C40  1  0.50350750  0.50300299  0.82565799  1  0.113762  0  -0.007504  0.016318  0  4.023269  0
C  C41  1  0.50336731  0.50208990  0.78683690  1  0.140686  0  -0.021598  -0.028585  0  4.024712  0
C  C42  1  0.59949071  0.50207808  0.76837791  1  0.187678  0  0.008764  0.050704  0  4.036  0
C  C43  1  0.40728156  0.50020076  0.76835871  1  -0.00918  0  0.008596  0.050681  0  4.033963  0
C  C44  1  0.89136082  0.50470993  0.01526383  1  0.563211  0  0.097054  0.249941  0  4.072422  0
C  C45  1  0.11391248  0.50208353  0.95732724  1  0.571268  0  0.098795  0.250202  0  4.069928  0
C  C46  1  0.81987884  0.50364385  0.98782544  1  -0.044999  0  -0.034716  -0.232778  0  3.94483  0
C  C47  1  0.18427758  0.50137107  0.98512822  1  -0.047807  0  -0.034147  -0.231461  0  3.947121  0
C  C48  1  0.00655563  0.50337465  0.96787957  1  -0.092264  0  -0.033295  -0.12229  0  4.123252  0
C  C49  1  0.99809254  0.50418544  0.00446613  1  -0.189634  0  -0.033913  -0.121966  0  4.141689  0
C  C50  1  0.49743618  0.88873513  0.04290926  1  0.532207  0  0.098696  0.250519  0  4.069925  0
C  C51  1  0.49803236  0.10691035  0.98454688  1  0.576505  0  0.096834  0.248623  0  4.073866  0
C  C52  1  0.49962395  0.81623419  0.01524916  1  -0.071021  0  -0.034484  -0.232543  0  3.947367  0
C  C53  1  0.49695473  0.18039841  0.01186401  1  -0.112866  0  -0.034663  -0.231545  0  3.945541  0
C  C54  1  0.49819395  0.00099389  0.99554354  1  -0.214663  0  -0.03395  -0.121773  0  4.139179  0
C  C55  1  0.49671160  0.99529879  0.03215075  1  -0.051391  0  -0.033226  -0.121771  0  4.120342  0
C  C56  1  0.89143331  0.49518706  0.48476028  1  0.564729  0  0.097138  0.24964  0  4.073114  0
C  C57  1  0.11406098  0.49805697  0.54270042  1  0.560255  0  0.098291  0.250072  0  4.068889  0
C  C58  1  0.81998817  0.49627556  0.51219537  1  -0.045702  0  -0.034452  -0.231736  0  3.945787  0
C  C59  1  0.18438819  0.49880037  0.51489965  1  -0.046937  0  -0.034095  -0.231384  0  3.946986  0
C  C60  1  0.00668297  0.49662451  0.53215141  1  -0.091406  0  -0.032777  -0.12154  0  4.122286  0
C  C61  1  0.99816916  0.49575611  0.49556465  1  -0.19029  0  -0.033906  -0.121803  0  4.142206  0
C  C62  1  0.49735432  0.11139802  0.45711596  1  0.531051  0  0.099217  0.251219  0  4.06932  0
C  C63  1  0.49809611  0.89325788  0.51549193  1  0.575891  0  0.096759  0.249098  0  4.073641  0
C  C64  1  0.49971511  0.18389676  0.48477227  1  -0.068045  0  -0.03439  -0.232729  0  3.948397  0
C  C65  1  0.49687978  0.81971798  0.48818560  1  -0.02746  0  -0.034245  -0.23159  0  3.944378  0
C  C66  1  0.49824420  0.99915911  0.50447985  1  -0.219359  0  -0.03408  -0.122394  0  4.140699  0
C  C67  1  0.49661921  0.00483100  0.46787399  1  -0.047324  0  -0.033109  -0.121544  0  4.119511  0
S  S68  1  0.88470742  0.50279126  0.94752032  1  0.296033  0  0.084048  0.16158  0  2.755362  0
S  S69  1  0.11891997  0.50241614  0.02520122  1  0.285171  0  0.081934  0.162764  0  2.834719  0
S  S70  1  0.50114153  0.87853200  0.97505963  1  0.293789  0  0.081479  0.162579  0  2.842415  0
S  S71  1  0.49552148  0.11873505  0.05228908  1  0.278674  0  0.083982  0.161199  0  2.757026  0
S  S72  1  0.88482942  0.49718836  0.55250153  1  0.294389  0  0.084082  0.161192  0  2.755671  0
S  S73  1  0.11896766  0.49761894  0.47482579  1  0.285158  0  0.081747  0.16237  0  2.834085  0
S  S74  1  0.50132862  0.12160317  0.52496249  1  0.293445  0  0.081647  0.162969  0  2.843326  0
S  S75  1  0.49533109  0.88136735  0.44775273  1  0.278971  0  0.08361  0.16091  0  2.75679  0
N  N76  1  0.49451119  0.50465132  0.39873002  1  -1.173706  0  -0.295149  -0.282218  0  3.429852  0
N  N77  1  0.49451029  0.49537006  0.10119862  1  -1.171777  0  -0.295556  -0.282413  0  3.431165  0
N  N78  1  0.50490849  0.49647302  0.60127187  1  -1.200702  0  -0.294707  -0.281069  0  3.429096  0
N  N79  1  0.50458765  0.50368209  0.89873827  1  -1.204805  0  -0.294482  -0.281613  0  3.430251  0
Cl  Cl80  1  0.29738209  0.44743286  0.40515210  1  -0.121298  0  0.046359  -0.017406  0  1.631377  0
Cl  Cl81  1  0.28467901  0.45465528  0.32304158  1  -0.153351  0  0.014558  -0.027722  0  1.561897  0
Cl  Cl82  1  0.69141930  0.56264739  0.40488299  1  -0.101646  0  0.055872  -0.000445  0  1.655592  0
Cl  Cl83  1  0.70143115  0.55352428  0.32272246  1  -0.143864  0  0.015152  -0.02813  0  1.560486  0
Cl  Cl84  1  0.49894308  0.28869720  0.29066799  1  -0.159661  0  0.014616  -0.026446  0  1.552064  0
Cl  Cl85  1  0.48727012  0.28454108  0.20883268  1  -0.155761  0  0.012524  -0.029843  0  1.552412  0
Cl  Cl86  1  0.48681082  0.71560854  0.29108528  1  -0.155386  0  0.012562  -0.029789  0  1.552412  0
Cl  Cl87  1  0.49867421  0.71143385  0.20925517  1  -0.160853  0  0.014647  -0.026445  0  1.551585  0
Cl  Cl88  1  0.70166002  0.44667442  0.17719413  1  -0.144133  0  0.015052  -0.028139  0  1.560984  0
Cl  Cl89  1  0.69145069  0.43718705  0.09505179  1  -0.101014  0  0.056346  0.000104  0  1.657092  0
Cl  Cl90  1  0.28461942  0.54530445  0.17688269  1  -0.153727  0  0.014441  -0.027833  0  1.561231  0
Cl  Cl91  1  0.29722683  0.55253731  0.09477693  1  -0.119051  0  0.04655  -0.017336  0  1.632616  0
Cl  Cl92  1  0.44823590  0.29890080  0.59379846  1  -0.118645  0  0.045682  -0.019033  0  1.638155  0
Cl  Cl93  1  0.45506545  0.28863361  0.67592918  1  -0.153038  0  0.014521  -0.027547  0  1.559506  0
Cl  Cl94  1  0.56051141  0.69390681  0.59615911  1  -0.098604  0  0.056594  0.000125  0  1.653509  0
Cl  Cl95  1  0.55181969  0.70594695  0.67834912  1  -0.152042  0  0.015005  -0.028525  0  1.55963  0
Cl  Cl96  1  0.29004013  0.50358468  0.70903963  1  -0.155092  0  0.014705  -0.026861  0  1.551741  0
Cl  Cl97  1  0.28997574  0.49726454  0.79090969  1  -0.155445  0  0.014828  -0.026546  0  1.551645  0
Cl  Cl98  1  0.71689567  0.49173024  0.70912717  1  -0.160839  0  0.012475  -0.029512  0  1.552517  0
Cl  Cl99  1  0.71685105  0.50769959  0.79093717  1  -0.159744  0  0.012571  -0.029367  0  1.552913  0
Cl  Cl100  1  0.45537484  0.71172622  0.82406947  1  -0.153657  0  0.014635  -0.027307  0  1.560162  0
Cl  Cl101  1  0.44816431  0.70144424  0.90619262  1  -0.120244  0  0.045625  -0.019029  0  1.637809  0
Cl  Cl102  1  0.55141633  0.29407322  0.82167271  1  -0.152467  0  0.015004  -0.028532  0  1.560343  0
Cl  Cl103  1  0.55984956  0.30604357  0.90387181  1  -0.096272  0  0.056267  -0.000511  0  1.653652  0
O  O104  1  0.34391155  0.49897644  0.01578242  1  -1.173301  0  -0.319453  -0.572754  0  2.343307  0
O  O105  1  0.34855093  0.49920622  0.95617530  1  -1.145516  0  -0.32433  -0.536748  0  2.316322  0
O  O106  1  0.50254572  0.65479271  0.98465969  1  -1.175473  0  -0.319078  -0.572646  0  2.348216  0
O  O107  1  0.49937106  0.65351792  0.04425400  1  -1.121821  0  -0.324402  -0.53615  0  2.310071  0
O  O108  1  0.65845615  0.50123511  0.95832843  1  -1.127549  0  -0.331158  -0.551735  0  2.330185  0
O  O109  1  0.65713969  0.50023116  0.01793375  1  -1.160976  0  -0.313764  -0.559917  0  2.33215  0
O  O110  1  0.49657176  0.34342816  0.04125761  1  -1.151005  0  -0.330921  -0.552925  0  2.338406  0
O  O111  1  0.50090272  0.34142943  0.98167208  1  -1.165432  0  -0.313821  -0.560016  0  2.329866  0
O  O112  1  0.34398589  0.50117410  0.48423498  1  -1.173684  0  -0.319022  -0.572011  0  2.343593  0
O  O113  1  0.34869972  0.50102631  0.54384236  1  -1.147271  0  -0.324157  -0.536659  0  2.31799  0
O  O114  1  0.50280813  0.34527301  0.51535742  1  -1.175439  0  -0.319248  -0.572457  0  2.347852  0
O  O115  1  0.49956962  0.34662689  0.45576140  1  -1.119494  0  -0.32415  -0.535979  0  2.309756  0
O  O116  1  0.65858796  0.49867377  0.54167379  1  -1.128461  0  -0.330701  -0.551343  0  2.331377  0
O  O117  1  0.65723673  0.49980846  0.48207452  1  -1.160144  0  -0.31374  -0.559738  0  2.331924  0
O  O118  1  0.49649132  0.65666546  0.45878711  1  -1.151572  0  -0.331125  -0.553365  0  2.337496  0
O  O119  1  0.50082052  0.65868101  0.51838201  1  -1.166607  0  -0.313731  -0.560014  0  2.329531  0
F  F120  1  0.86483612  0.50606131  0.04939012  1  -0.622871  0  -0.092688  -0.109903  0  1.397304  0
F  F121  1  0.14250213  0.50139752  0.92341417  1  -0.629427  0  -0.094924  -0.111869  0  1.342088  0
F  F122  1  0.49631233  0.86270338  0.07687016  1  -0.618612  0  -0.094457  -0.111708  0  1.342661  0
F  F123  1  0.49880373  0.13092544  0.95037869  1  -0.628195  0  -0.092468  -0.109092  0  1.39461  0
F  F124  1  0.86489600  0.49373641  0.45063380  1  -0.621647  0  -0.092737  -0.109932  0  1.397331  0
F  F125  1  0.14265896  0.49884171  0.57661741  1  -0.618967  0  -0.095113  -0.112282  0  1.341732  0
F  F126  1  0.49611717  0.13742304  0.42315549  1  -0.619096  0  -0.094904  -0.112186  0  1.342301  0
F  F127  1  0.49901015  0.86925296  0.54966092  1  -0.629243  0  -0.092714  -0.109501  0  1.393875  0
