# generated using pymatgen
data_Ca2H2C7O10
_symmetry_space_group_name_H-M   'P 1'
_cell_length_a   7.27187233
_cell_length_b   9.36287739
_cell_length_c   15.04920398
_cell_angle_alpha   89.99999066
_cell_angle_beta   90.00005603
_cell_angle_gamma   89.99997519
_symmetry_Int_Tables_number   1
_chemical_formula_structural   Ca2H2C7O10
_chemical_formula_sum   'Ca8 H8 C28 O40'
_cell_volume   1024.63482104
_cell_formula_units_Z   4
loop_
 _symmetry_equiv_pos_site_id
 _symmetry_equiv_pos_as_xyz
  1  'x, y, z'
loop_
 _atom_site_type_symbol
 _atom_site_label
 _atom_site_symmetry_multiplicity
 _atom_site_fract_x
 _atom_site_fract_y
 _atom_site_fract_z
 _atom_site_occupancy
 _atom_site_hle17_bader_spin_density
 _atom_site_hle17_ddec_charge
 _atom_site_hle17_ddec_spin_density
 _atom_site_hle17_ddec_sum_bond_order
 _atom_site_hle17_magmom
 _atom_site_hse06_10hf_bader_spin_density
 _atom_site_hse06_10hf_ddec_charge
 _atom_site_hse06_10hf_ddec_spin_density
 _atom_site_hse06_10hf_ddec_sum_bond_order
 _atom_site_hse06_10hf_magmom
 _atom_site_hse06_bader_spin_density
 _atom_site_hse06_ddec_charge
 _atom_site_hse06_ddec_spin_density
 _atom_site_hse06_ddec_sum_bond_order
 _atom_site_hse06_magmom
 _atom_site_pbe_bader_spin_density
 _atom_site_pbe_cm5_charge
 _atom_site_pbe_ddec_charge
 _atom_site_pbe_ddec_spin_density
 _atom_site_pbe_ddec_sum_bond_order
 _atom_site_pbe_magmom
Ca  Ca0  1  0.75000410  0.49468638  0.68474800  1  0  1.559088  0  1.111196  0  0  1.42252  0  1.468258  0  0  1.468313  0  1.420322  0  0  0.935141  1.38803  0  1.502881  0
Ca  Ca1  1  0.25000219  0.99468339  0.81525509  1  0  1.559084  0  1.111143  0  0  1.422507  0  1.468224  0  0  1.468296  0  1.420284  0  0  0.935142  1.388015  0  1.502846  0
Ca  Ca2  1  0.74999960  0.00531445  0.18474151  1  0  1.559128  0  1.111074  0  0  1.422517  0  1.468192  0  0  1.468309  0  1.420254  0  0  0.935177  1.388034  0  1.50282  0
Ca  Ca3  1  0.25000182  0.50531786  0.31525990  1  0  1.559133  0  1.111088  0  0  1.422603  0  1.46808  0  0  1.46839  0  1.420144  0  0  0.935194  1.388119  0  1.502706  0
Ca  Ca4  1  0.74999857  0.87417228  0.76687259  1  0  1.475036  0  1.175301  0  0  1.329662  0  1.5289  0  0  1.377704  0  1.483976  0  0  0.900775  1.293713  0  1.56108  0
Ca  Ca5  1  0.25000090  0.37417223  0.73312852  1  0  1.474895  0  1.175472  0  0  1.329561  0  1.529077  0  0  1.377591  0  1.484154  0  0  0.900739  1.293608  0  1.561261  0
Ca  Ca6  1  0.75000089  0.62582454  0.26687273  1  0  1.474952  0  1.175462  0  0  1.329558  0  1.529089  0  0  1.377597  0  1.484164  0  0  0.900752  1.293729  0  1.561069  0
Ca  Ca7  1  0.24999909  0.12582556  0.23312667  1  0  1.475  0  1.175367  0  0  1.329626  0  1.528971  0  0  1.377659  0  1.484047  0  0  0.900763  1.293716  0  1.56109  0
H  H8  1  0.74999978  0.47497025  0.49349802  1  0  0.434342  0  0.858672  0  0  0.402017  0  0.923386  0  0  0.413679  0  0.906221  0  0  0.306899  0.392758  0  0.937092  0
H  H9  1  0.25000000  0.97496947  0.00650268  1  0  0.434276  0  0.85875  0  0  0.40192  0  0.923519  0  0  0.413583  0  0.906353  0  0  0.306872  0.392661  0  0.937224  0
H  H10  1  0.75000041  0.02503051  0.99349724  1  0  0.434269  0  0.85876  0  0  0.401909  0  0.923535  0  0  0.413573  0  0.906368  0  0  0.306862  0.39265  0  0.937241  0
H  H11  1  0.24999925  0.52503080  0.50650191  1  0  0.434235  0  0.858815  0  0  0.401905  0  0.923548  0  0  0.41357  0  0.906379  0  0  0.306891  0.392646  0  0.937253  0
H  H12  1  0.74999985  0.30635435  0.51205316  1  0  0.437758  0  0.852617  0  0  0.40395  0  0.920074  0  0  0.415357  0  0.903263  0  0  0.299332  0.394555  0  0.934023  0
H  H13  1  0.24999966  0.80635450  0.98794663  1  0  0.437697  0  0.852709  0  0  0.403898  0  0.920147  0  0  0.415304  0  0.903338  0  0  0.299307  0.394503  0  0.934095  0
H  H14  1  0.74999937  0.19364654  0.01205263  1  0  0.437697  0  0.852695  0  0  0.403888  0  0.920154  0  0  0.415295  0  0.903343  0  0  0.299301  0.394492  0  0.934104  0
H  H15  1  0.24999919  0.69364670  0.48794676  1  0  0.437669  0  0.852738  0  0  0.403855  0  0.920202  0  0  0.415266  0  0.903385  0  0  0.299317  0.39446  0  0.934149  0
C  C16  1  0.74999971  0.96123956  0.55754258  1  0  0.200175  0  3.877737  0  0  0.17604  0  4.161743  0  0  0.187904  0  4.175215  0  0  0.117288  0.168087  0  4.152553  0
C  C17  1  0.24999971  0.46124052  0.94245719  1  0  0.200263  0  3.877637  0  0  0.176119  0  4.161679  0  0  0.187978  0  4.175156  0  0  0.117339  0.168185  0  4.152462  0
C  C18  1  0.74999932  0.53876053  0.05754273  1  0  0.200413  0  3.877535  0  0  0.176269  0  4.161558  0  0  0.188127  0  4.175036  0  0  0.117358  0.168323  0  4.152364  0
C  C19  1  0.24999932  0.03876255  0.44245735  1  0  0.200178  0  3.877753  0  0  0.176065  0  4.161737  0  0  0.187929  0  4.175199  0  0  0.117279  0.168114  0  4.152552  0
C  C20  1  0.74999975  0.80457938  0.55424341  1  0  0.239721  0  3.849873  0  0  0.217635  0  4.12242  0  0  0.231017  0  4.134843  0  0  0.130438  0.208488  0  4.113896  0
C  C21  1  0.24999976  0.30458034  0.94575704  1  0  0.23958  0  3.849889  0  0  0.217478  0  4.122472  0  0  0.230866  0  4.134902  0  0  0.130352  0.208318  0  4.113957  0
C  C22  1  0.75000065  0.69541856  0.05424288  1  0  0.239536  0  3.849882  0  0  0.21744  0  4.122444  0  0  0.230827  0  4.134872  0  0  0.130339  0.20829  0  4.113927  0
C  C23  1  0.25000066  0.19542166  0.44575585  1  0  0.239562  0  3.850283  0  0  0.217504  0  4.12276  0  0  0.230891  0  4.13519  0  0  0.130414  0.208358  0  4.114235  0
C  C24  1  0.74999967  0.76084818  0.46160661  1  0  0.204454  0  3.86728  0  0  0.180709  0  4.142225  0  0  0.191066  0  4.156742  0  0  0.126298  0.173274  0  4.132999  0
C  C25  1  0.24999885  0.26084925  0.03839344  1  0  0.204513  0  3.867258  0  0  0.180795  0  4.142145  0  0  0.191151  0  4.156665  0  0  0.126303  0.17336  0  4.132915  0
C  C26  1  0.75000018  0.73915179  0.96160781  1  0  0.204477  0  3.867385  0  0  0.18075  0  4.142284  0  0  0.191109  0  4.156806  0  0  0.126317  0.173313  0  4.133048  0
C  C27  1  0.25000074  0.23915393  0.53839198  1  0  0.204331  0  3.867278  0  0  0.180719  0  4.142183  0  0  0.191083  0  4.156715  0  0  0.126258  0.173283  0  4.132944  0
C  C28  1  0.74999958  0.89064803  0.40708412  1  0  0.239834  0  3.809811  0  0  0.216322  0  4.085539  0  0  0.230076  0  4.097752  0  0  0.136544  0.207051  0  4.077487  0
C  C29  1  0.24999887  0.39064909  0.09291525  1  0  0.239723  0  3.809881  0  0  0.216254  0  4.085563  0  0  0.230004  0  4.097785  0  0  0.136515  0.206984  0  4.077503  0
C  C30  1  0.75000016  0.60935196  0.90708533  1  0  0.239775  0  3.809894  0  0  0.216284  0  4.085583  0  0  0.230033  0  4.097808  0  0  0.136519  0.207015  0  4.07752  0
C  C31  1  0.25000083  0.10935515  0.59291513  1  0  0.239884  0  3.809512  0  0  0.216225  0  4.08546  0  0  0.229941  0  4.097727  0  0  0.136491  0.206958  0  4.077397  0
C  C32  1  0.74999988  0.01831897  0.46545802  1  0  0.208178  0  3.851349  0  0  0.18458  0  4.140078  0  0  0.195756  0  4.153136  0  0  0.121637  0.176599  0  4.131908  0
C  C33  1  0.24999878  0.51832032  0.03454206  1  0  0.208168  0  3.851368  0  0  0.184559  0  4.140116  0  0  0.195736  0  4.153178  0  0  0.121611  0.176571  0  4.131944  0
C  C34  1  0.75000026  0.48168180  0.96545786  1  0  0.208123  0  3.851419  0  0  0.184524  0  4.140136  0  0  0.195705  0  4.153194  0  0  0.121649  0.176537  0  4.131966  0
C  C35  1  0.25000053  0.98168315  0.53454190  1  0  0.208173  0  3.851154  0  0  0.18456  0  4.139982  0  0  0.195754  0  4.153028  0  0  0.121596  0.176567  0  4.131827  0
C  C36  1  0.14308748  0.69505651  0.72521577  1  0  0.604987  0  3.885941  0  0  0.554516  0  4.185529  0  0  0.586524  0  4.174611  0  0  0.251385  0.532273  0  4.192667  0
C  C37  1  0.85691209  0.19505624  0.77478403  1  0  0.604884  0  3.886051  0  0  0.554384  0  4.185656  0  0  0.586388  0  4.174762  0  0  0.251314  0.532152  0  4.192781  0
C  C38  1  0.35691358  0.80494370  0.22521594  1  0  0.605006  0  3.886023  0  0  0.554548  0  4.185599  0  0  0.586553  0  4.174686  0  0  0.251378  0.532311  0  4.192737  0
C  C39  1  0.64308767  0.30494137  0.27478411  1  0  0.604934  0  3.885972  0  0  0.554442  0  4.185576  0  0  0.586446  0  4.174674  0  0  0.251379  0.532201  0  4.192717  0
C  C40  1  0.85691155  0.30494133  0.27478349  1  0  0.604948  0  3.885929  0  0  0.554466  0  4.18552  0  0  0.586476  0  4.174611  0  0  0.251401  0.532229  0  4.192659  0
C  C41  1  0.14308970  0.80494480  0.22521456  1  0  0.604952  0  3.8859  0  0  0.554398  0  4.18558  0  0  0.586414  0  4.174657  0  0  0.251324  0.532155  0  4.192726  0
C  C42  1  0.64308958  0.19505521  0.77478531  1  0  0.60501  0  3.885948  0  0  0.554487  0  4.185592  0  0  0.586484  0  4.174703  0  0  0.251358  0.532241  0  4.19273  0
C  C43  1  0.35691137  0.69505540  0.72521582  1  0  0.604907  0  3.885978  0  0  0.554383  0  4.185622  0  0  0.586396  0  4.174704  0  0  0.251301  0.532147  0  4.192746  0
O  O44  1  0.75000004  0.02968724  0.62897231  1  0  -0.478573  0  2.019167  0  0  -0.428994  0  2.2418  0  0  -0.448713  0  2.241443  0  0  -0.277279  -0.415177  0  2.241825  0
O  O45  1  0.25000100  0.52968850  0.87102750  1  0  -0.478566  0  2.0191  0  0  -0.428996  0  2.241761  0  0  -0.448715  0  2.241407  0  0  -0.277294  -0.415184  0  2.241778  0
O  O46  1  0.74999941  0.47031361  0.12897309  1  0  -0.478629  0  2.01905  0  0  -0.42904  0  2.241702  0  0  -0.448761  0  2.241348  0  0  -0.277272  -0.41524  0  2.241724  0
O  O47  1  0.24999899  0.97031273  0.37102761  1  0  -0.478608  0  2.019095  0  0  -0.429016  0  2.241725  0  0  -0.448742  0  2.241368  0  0  -0.277282  -0.415202  0  2.24175  0
O  O48  1  0.74999984  0.72882595  0.62363844  1  0  -0.566802  0  2.102245  0  0  -0.504264  0  2.342677  0  0  -0.528268  0  2.339327  0  0  -0.332393  -0.487053  0  2.344543  0
O  O49  1  0.24999971  0.22882693  0.87636135  1  0  -0.566671  0  2.10222  0  0  -0.504158  0  2.342708  0  0  -0.528129  0  2.339281  0  0  -0.332323  -0.486942  0  2.344576  0
O  O50  1  0.75000070  0.77117411  0.12363857  1  0  -0.566753  0  2.102218  0  0  -0.504195  0  2.342683  0  0  -0.528167  0  2.339249  0  0  -0.33236  -0.486998  0  2.344548  0
O  O51  1  0.24999919  0.27117402  0.37636015  1  0  -0.566631  0  2.102439  0  0  -0.504109  0  2.342895  0  0  -0.528071  0  2.339445  0  0  -0.332296  -0.486901  0  2.344755  0
O  O52  1  0.74999967  0.63655627  0.42871917  1  0  -0.517482  0  2.055834  0  0  -0.457845  0  2.278209  0  0  -0.479644  0  2.274427  0  0  -0.286012  -0.441972  0  2.281378  0
O  O53  1  0.24999892  0.13655733  0.07128023  1  0  -0.517543  0  2.055816  0  0  -0.457892  0  2.278145  0  0  -0.479697  0  2.274367  0  0  -0.286027  -0.442008  0  2.281316  0
O  O54  1  0.75000011  0.86344372  0.92872035  1  0  -0.517482  0  2.055886  0  0  -0.457852  0  2.278258  0  0  -0.479659  0  2.274483  0  0  -0.286021  -0.441962  0  2.281425  0
O  O55  1  0.25000074  0.36344585  0.57127943  1  0  -0.517302  0  2.055682  0  0  -0.457838  0  2.278169  0  0  -0.479645  0  2.274397  0  0  -0.285981  -0.441946  0  2.281337  0
O  O56  1  0.75000087  0.88487845  0.32342787  1  0  -0.560009  0  2.105325  0  0  -0.501375  0  2.353527  0  0  -0.524028  0  2.349153  0  0  -0.324359  -0.485274  0  2.356153  0
O  O57  1  0.25000033  0.38488055  0.17657151  1  0  -0.559928  0  2.10536  0  0  -0.50136  0  2.353584  0  0  -0.524002  0  2.349192  0  0  -0.324323  -0.485251  0  2.356208  0
O  O58  1  0.75000145  0.61512050  0.82342775  1  0  -0.559948  0  2.10535  0  0  -0.501366  0  2.353578  0  0  -0.524006  0  2.349181  0  0  -0.324349  -0.485249  0  2.356199  0
O  O59  1  0.25000092  0.11512366  0.67657139  1  0  -0.559992  0  2.105281  0  0  -0.501324  0  2.353567  0  0  -0.523951  0  2.349186  0  0  -0.324326  -0.485209  0  2.356186  0
O  O60  1  0.74999982  0.14649965  0.44282492  1  0  -0.433711  0  1.993434  0  0  -0.390697  0  2.205247  0  0  -0.407847  0  2.204533  0  0  -0.249533  -0.378658  0  2.206882  0
O  O61  1  0.25000014  0.64649993  0.05717514  1  0  -0.433693  0  1.993423  0  0  -0.390677  0  2.205241  0  0  -0.407825  0  2.204525  0  0  -0.249523  -0.37864  0  2.206878  0
O  O62  1  0.75000027  0.35350005  0.94282411  1  0  -0.433669  0  1.993465  0  0  -0.390664  0  2.205285  0  0  -0.407816  0  2.20457  0  0  -0.249542  -0.378625  0  2.206919  0
O  O63  1  0.24999921  0.85350353  0.55717633  1  0  -0.43367  0  1.993465  0  0  -0.39063  0  2.205283  0  0  -0.407782  0  2.204556  0  0  -0.249491  -0.378587  0  2.206923  0
O  O64  1  0.06493980  0.58247788  0.69847347  1  0  -0.677219  0  2.068267  0  0  -0.617875  0  2.316835  0  0  -0.646387  0  2.308692  0  0  -0.358155  -0.597029  0  2.322046  0
O  O65  1  0.93506121  0.08247865  0.80152700  1  0  -0.677159  0  2.068236  0  0  -0.617822  0  2.316838  0  0  -0.646336  0  2.308701  0  0  -0.358141  -0.596966  0  2.322009  0
O  O66  1  0.43505846  0.91751912  0.19847368  1  0  -0.677173  0  2.068273  0  0  -0.617853  0  2.316867  0  0  -0.646366  0  2.308725  0  0  -0.358146  -0.597015  0  2.322074  0
O  O67  1  0.56493997  0.41751681  0.30152570  1  0  -0.677157  0  2.06825  0  0  -0.61783  0  2.316847  0  0  -0.646345  0  2.308707  0  0  -0.358146  -0.597  0  2.322053  0
O  O68  1  0.93505923  0.41751675  0.30152578  1  0  -0.677126  0  2.068199  0  0  -0.61781  0  2.316795  0  0  -0.646324  0  2.308652  0  0  -0.358133  -0.596982  0  2.322001  0
O  O69  1  0.06494470  0.91751812  0.19847226  1  0  -0.677155  0  2.068211  0  0  -0.617798  0  2.316836  0  0  -0.646312  0  2.308686  0  0  -0.358123  -0.596955  0  2.322045  0
O  O70  1  0.56494470  0.08248085  0.80152691  1  0  -0.677183  0  2.068246  0  0  -0.617833  0  2.316854  0  0  -0.646342  0  2.308715  0  0  -0.358129  -0.596988  0  2.322063  0
O  O71  1  0.43505769  0.58247889  0.69847356  1  0  -0.677134  0  2.068247  0  0  -0.617793  0  2.31684  0  0  -0.646306  0  2.308697  0  0  -0.358116  -0.596948  0  2.322042  0
O  O72  1  0.06471977  0.80674868  0.75411760  1  0  -0.697645  0  2.071422  0  0  -0.639039  0  2.329928  0  0  -0.66833  0  2.320698  0  0  -0.379676  -0.617848  0  2.335776  0
O  O73  1  0.93528386  0.30674839  0.74588285  1  0  -0.697655  0  2.07146  0  0  -0.639024  0  2.329978  0  0  -0.668315  0  2.320757  0  0  -0.379638  -0.617837  0  2.335819  0
O  O74  1  0.43528136  0.69325152  0.25411783  1  0  -0.697713  0  2.071475  0  0  -0.639097  0  2.329962  0  0  -0.66839  0  2.320734  0  0  -0.379678  -0.617927  0  2.335806  0
O  O75  1  0.56471995  0.19324816  0.24588090  1  0  -0.697676  0  2.071456  0  0  -0.639041  0  2.329927  0  0  -0.668334  0  2.320704  0  0  -0.37972  -0.617856  0  2.335772  0
O  O76  1  0.93528064  0.19324809  0.24587966  1  0  -0.697704  0  2.071424  0  0  -0.639074  0  2.329902  0  0  -0.668368  0  2.320673  0  0  -0.379749  -0.617891  0  2.335747  0
O  O77  1  0.06472205  0.69324838  0.25411841  1  0  -0.697698  0  2.071388  0  0  -0.639041  0  2.329866  0  0  -0.668339  0  2.320636  0  0  -0.379695  -0.617869  0  2.335715  0
O  O78  1  0.56472455  0.30675059  0.74588209  1  0  -0.697693  0  2.07139  0  0  -0.639055  0  2.329873  0  0  -0.668344  0  2.320651  0  0  -0.379711  -0.617866  0  2.335722  0
O  O79  1  0.43527771  0.80674861  0.75411769  1  0  -0.697682  0  2.071429  0  0  -0.639035  0  2.329913  0  0  -0.668329  0  2.320683  0  0  -0.379691  -0.617847  0  2.335757  0
O  O80  1  0.74999985  0.40144690  0.54089787  1  0  -0.902218  0  1.748755  0  0  -0.845367  0  1.924168  0  0  -0.865901  0  1.888698  0  0  -0.631823  -0.82915  0  1.951884  0
O  O81  1  0.24999961  0.90144493  0.95910257  1  0  -0.902098  0  1.748902  0  0  -0.845229  0  1.924327  0  0  -0.865765  0  1.888858  0  0  -0.631764  -0.82901  0  1.95204  0
O  O82  1  0.74999943  0.09855611  0.04089669  1  0  -0.902113  0  1.748894  0  0  -0.845228  0  1.924326  0  0  -0.865766  0  1.888859  0  0  -0.631781  -0.829016  0  1.952043  0
O  O83  1  0.25000056  0.59855628  0.45910139  1  0  -0.902086  0  1.748992  0  0  -0.845212  0  1.924395  0  0  -0.865751  0  1.88892  0  0  -0.631847  -0.828996  0  1.952107  0
