# generated using pymatgen
data_CuH10C17N5O4
_symmetry_space_group_name_H-M   'P 1'
_cell_length_a   7.70870789
_cell_length_b   9.08791415
_cell_length_c   12.33969819
_cell_angle_alpha   98.05405382
_cell_angle_beta   97.16980196
_cell_angle_gamma   99.96652204
_symmetry_Int_Tables_number   1
_chemical_formula_structural   CuH10C17N5O4
_chemical_formula_sum   'Cu2 H20 C34 N10 O8'
_cell_volume   833.12080698
_cell_formula_units_Z   2
loop_
 _symmetry_equiv_pos_site_id
 _symmetry_equiv_pos_as_xyz
  1  'x, y, z'
loop_
 _atom_site_type_symbol
 _atom_site_label
 _atom_site_symmetry_multiplicity
 _atom_site_fract_x
 _atom_site_fract_y
 _atom_site_fract_z
 _atom_site_occupancy
 _atom_site_hle17_ddec_charge
 _atom_site_hle17_ddec_spin_density
 _atom_site_hle17_ddec_sum_bond_order
 _atom_site_hle17_magmom
 _atom_site_hse06_10hf_ddec_charge
 _atom_site_hse06_10hf_ddec_spin_density
 _atom_site_hse06_10hf_ddec_sum_bond_order
 _atom_site_hse06_10hf_magmom
 _atom_site_hse06_ddec_charge
 _atom_site_hse06_ddec_spin_density
 _atom_site_hse06_ddec_sum_bond_order
 _atom_site_hse06_magmom
 _atom_site_pbe_cm5_charge
 _atom_site_pbe_ddec_charge
 _atom_site_pbe_ddec_spin_density
 _atom_site_pbe_ddec_sum_bond_order
 _atom_site_pbe_magmom
Cu  Cu0  1  0.62552841  0.89910729  0.94675660  1  0.841797  0.708179  1.780348  0.496  0.814766  0.801767  2.181837  0.627  0.914541  0.886807  2.104918  0.722  0.726762  0.748244  0.723882  2.240192  0.553
Cu  Cu1  1  0.37446683  0.10088681  0.05324198  1  0.841744  -0.708175  1.78039  -0.496  0.814846  -0.801767  2.181687  -0.627  0.914492  -0.886811  2.104955  -0.722  0.726776  0.748241  -0.723896  2.240145  -0.552
H  H2  1  0.70105380  0.42397119  0.88707007  1  0.100529  0.000133  0.954334  0.0  0.109774  8.4e-05  1.018385  0.0  0.112813  6e-05  1.01685  0.0  0.10483  0.107823  0.000128  1.019535  0.0
H  H3  1  0.29893627  0.57602287  0.11292401  1  0.100393  -0.000133  0.954564  0.0  0.109706  -8.4e-05  1.018516  0.0  0.112749  -6e-05  1.016974  0.0  0.104777  0.107752  -0.000128  1.019671  0.0
H  H4  1  0.36555201  0.72845759  0.77285052  1  0.092483  0.001216  0.951685  0.002  0.101832  0.000947  1.010675  0.002  0.103433  0.00069  1.008476  0.001  0.12165  0.1001  0.001104  1.01295  0.002
H  H5  1  0.63444736  0.27153177  0.22714395  1  0.092443  -0.001216  0.951727  -0.002  0.101785  -0.000947  1.010736  -0.002  0.103386  -0.00069  1.008536  -0.001  0.121613  0.100054  -0.001104  1.013014  -0.002
H  H6  1  0.20358957  0.75359962  0.59099744  1  0.128377  0.000542  0.923713  0.001  0.138883  0.00046  0.97708  0.001  0.142609  0.000311  0.975217  0.0  0.118952  0.13595  0.000563  0.978972  0.001
H  H7  1  0.79640740  0.24640115  0.40899780  1  0.128397  -0.000541  0.92377  -0.001  0.138902  -0.00046  0.977121  -0.001  0.142627  -0.000311  0.975259  0.0  0.118923  0.13597  -0.000563  0.979015  -0.001
H  H8  1  0.51470938  0.20574523  0.63132132  1  0.124867  0.000657  0.919614  0.001  0.137486  0.000548  0.971027  0.001  0.140634  0.000375  0.970167  0.0  0.118412  0.135107  0.000669  0.971928  0.001
H  H9  1  0.48529249  0.79425446  0.36867830  1  0.124869  -0.000657  0.91964  -0.001  0.137504  -0.000547  0.971031  -0.001  0.140643  -0.000374  0.970181  0.0  0.118409  0.135125  -0.000669  0.971933  -0.001
H  H10  1  0.66660114  0.16165016  0.81038973  1  0.073706  0.001068  0.966964  0.002  0.085226  0.00091  1.029348  0.001  0.085861  0.000645  1.028853  0.001  0.114527  0.084524  0.001071  1.029747  0.002
H  H11  1  0.33339903  0.83834276  0.18960997  1  0.073697  -0.001068  0.966967  -0.002  0.0852  -0.00091  1.029362  -0.001  0.085834  -0.000645  1.028867  -0.001  0.114509  0.084495  -0.001071  1.029773  -0.002
H  H12  1  0.90518195  0.65039128  0.33282593  1  0.118176  0.000461  0.917852  0.001  0.128968  0.000104  0.972366  0.0  0.132752  3.6e-05  0.968571  0.0  0.119431  0.12582  0.000184  0.975874  0.0
H  H13  1  0.09482600  0.34961772  0.66718472  1  0.118244  -0.000459  0.917864  -0.001  0.129025  -0.000104  0.972389  0.0  0.132764  -3.6e-05  0.968647  0.0  0.119432  0.125886  -0.000184  0.975884  0.0
H  H14  1  0.66368447  0.49535850  0.18027810  1  0.120359  0.000676  0.946135  0.001  0.130585  0.000541  1.001389  0.001  0.133605  0.000368  1.000494  0.0  0.112989  0.128012  0.000601  1.002839  0.001
H  H15  1  0.33632121  0.50464149  0.81973321  1  0.120309  -0.000677  0.946164  -0.001  0.130551  -0.000541  1.001409  -0.001  0.133574  -0.000368  1.000513  0.0  0.113006  0.127976  -0.000601  1.00286  -0.001
H  H16  1  0.56061025  0.61941702  0.02283916  1  0.088844  0.001173  0.968305  0.002  0.096645  0.000965  1.033899  0.002  0.098608  0.000684  1.031085  0.001  0.119227  0.09488  0.001092  1.036316  0.002
H  H17  1  0.43938987  0.38057610  0.97716704  1  0.088894  -0.001172  0.968291  -0.002  0.096672  -0.000965  1.033873  -0.002  0.098635  -0.000684  1.031058  -0.001  0.119254  0.094911  -0.001093  1.036285  -0.002
H  H18  1  0.90590882  0.02469240  0.15235072  1  0.105156  0.001117  0.976882  0.002  0.110348  0.000885  1.042261  0.002  0.11222  0.000626  1.040828  0.001  0.121777  0.108395  0.001066  1.043984  0.002
H  H19  1  0.09409115  0.97530515  0.84765179  1  0.105162  -0.001115  0.976884  -0.002  0.11035  -0.000885  1.04227  -0.002  0.112221  -0.000626  1.040838  -0.001  0.121774  0.108403  -0.001066  1.043984  -0.002
H  H20  1  0.10791394  0.16355743  0.30162353  1  0.306902  4e-05  0.935165  0.0  0.280882  9e-06  1.003204  0.0  0.291674  5e-06  0.994375  0.0  0.308438  0.273342  -3.3e-05  1.009169  0.0
H  H21  1  0.89208567  0.83644930  0.69838217  1  0.30699  -4e-05  0.934975  0.0  0.281  -9e-06  1.002987  0.0  0.291795  -5e-06  0.994145  0.0  0.308464  0.273456  3.3e-05  1.008956  0.0
C  C22  1  0.86786672  0.68734903  0.84709897  1  0.657234  -0.002223  3.913188  -0.003  0.613039  0.000595  4.213118  0.0  0.648825  0.000366  4.202416  0.0  0.205394  0.588208  0.000963  4.219109  0.001
C  C23  1  0.13212978  0.31265523  0.15289896  1  0.657298  0.002224  3.913198  0.003  0.613083  -0.000597  4.213188  0.0  0.648864  -0.000364  4.202482  0.0  0.205431  0.588254  -0.000963  4.219176  -0.001
C  C24  1  0.93930740  0.59312818  0.92700586  1  -0.049023  0.003618  3.714992  0.004  -0.038193  0.001672  3.951567  0.002  -0.041945  0.001455  3.970934  0.002  -0.010067  -0.03443  0.001674  3.937421  0.002
C  C25  1  0.06069002  0.40686922  0.07299075  1  -0.049024  -0.003618  3.714841  -0.004  -0.038239  -0.001669  3.951514  -0.002  -0.041983  -0.001458  3.970881  -0.002  -0.010114  -0.03449  -0.001674  3.937383  -0.002
C  C26  1  0.83307999  0.45598655  0.93680303  1  -0.100184  -0.001601  3.729492  -0.002  -0.132877  0.000576  3.98285  0.001  -0.13362  0.000175  4.002108  0.0  -0.084537  -0.133294  0.000204  3.970173  0.0
C  C27  1  0.16691222  0.54401093  0.06319315  1  -0.100132  0.001601  3.729699  0.002  -0.132844  -0.000574  3.983022  -0.001  -0.133595  -0.000174  4.002285  0.0  -0.084514  -0.133256  -0.000204  3.970354  0.0
C  C28  1  0.89122229  0.36241699  0.00856350  1  -0.04633  0.005761  3.71062  0.006  -0.037248  0.002659  3.950918  0.003  -0.042153  0.002197  3.969548  0.002  -0.007165  -0.033081  0.001921  3.937811  0.002
C  C29  1  0.10877589  0.63757805  0.99143054  1  -0.04639  -0.005761  3.710914  -0.006  -0.037336  -0.002663  3.951206  -0.003  -0.042234  -0.002195  3.969824  -0.002  -0.007163  -0.033184  -0.001921  3.938121  -0.002
C  C30  1  0.76440737  0.21801670  0.01272542  1  0.657114  -0.00213  3.867041  -0.004  0.610689  -0.00053  4.179554  -0.002  0.652515  -0.000739  4.168916  -0.002  0.221293  0.581596  -0.000383  4.186019  -0.002
C  C31  1  0.23558997  0.78197490  0.98726663  1  0.657145  0.002129  3.867108  0.004  0.610757  0.000529  4.179566  0.002  0.652581  0.000739  4.168928  0.002  0.221339  0.581667  0.000384  4.186029  0.002
C  C32  1  0.39456719  0.83205091  0.73873122  1  0.150941  -0.006495  3.672013  -0.007  0.121754  -0.000355  3.928497  -0.001  0.132987  -0.001606  3.946069  -0.003  0.049483  0.11443  0.00062  3.917215  0.0
C  C33  1  0.60543021  0.16794654  0.26126702  1  0.151042  0.006502  3.672063  0.007  0.121827  0.000354  3.928577  0.001  0.133061  0.001608  3.946138  0.003  0.04949  0.1145  -0.00062  3.917291  0.0
C  C34  1  0.30513057  0.84664318  0.63773518  1  -0.126889  0.011421  3.669045  0.012  -0.149313  0.004424  3.916393  0.005  -0.156201  0.003915  3.933249  0.005  -0.072731  -0.14491  0.004622  3.905394  0.005
C  C35  1  0.69486666  0.15335882  0.36226343  1  -0.126965  -0.011431  3.669154  -0.012  -0.149329  -0.004425  3.916494  -0.005  -0.156221  -0.003917  3.933347  -0.005  -0.072651  -0.144929  -0.004622  3.905496  -0.005
C  C36  1  0.34329306  0.98303957  0.59689341  1  0.068262  -0.008189  3.767105  -0.008  0.08251  -0.002552  4.002329  -0.003  0.088597  -0.002818  4.021177  -0.003  0.020027  0.078281  -0.002261  3.989547  -0.002
C  C37  1  0.65670055  0.01696361  0.40310419  1  0.068355  0.008198  3.767059  0.008  0.082504  0.002555  4.002397  0.003  0.088611  0.002819  4.021229  0.003  0.02002  0.078295  0.002261  3.989603  0.002
C  C38  1  0.47649590  0.09876871  0.66032787  1  -0.141417  0.010772  3.690557  0.011  -0.163157  0.00412  3.940616  0.005  -0.170817  0.003708  3.960473  0.004  -0.078186  -0.158156  0.004234  3.927285  0.005
C  C39  1  0.52350334  0.90123112  0.33967478  1  -0.141464  -0.010782  3.690584  -0.011  -0.163188  -0.004121  3.940649  -0.005  -0.170844  -0.003709  3.9605  -0.004  -0.07818  -0.158191  -0.004233  3.927317  -0.005
C  C40  1  0.56080350  0.07492790  0.76068331  1  0.126417  -0.00579  3.701092  -0.006  0.095444  6.2e-05  3.963825  -0.001  0.105695  -0.001163  3.98517  -0.002  0.039183  0.089084  0.000966  3.94947  0.0
C  C41  1  0.43919750  0.92506847  0.23931838  1  0.126347  0.005799  3.701136  0.006  0.095401  -6.3e-05  3.963873  0.001  0.105649  0.001164  3.985215  0.002  0.03917  0.089042  -0.000965  3.949513  0.0
C  C42  1  0.24318813  0.99745386  0.49210493  1  0.262328  0.001808  3.81676  0.002  0.235397  0.000468  4.110683  0.001  0.242212  0.000463  4.128456  0.001  0.202071  0.231249  0.000476  4.09813  0.001
C  C43  1  0.75681200  0.00254919  0.50789239  1  0.262384  -0.001814  3.816887  -0.002  0.235496  -0.000469  4.110831  -0.001  0.242283  -0.000464  4.128601  -0.001  0.202081  0.231315  -0.000477  4.098276  -0.001
C  C44  1  0.06031301  0.93539277  0.34295290  1  0.295979  0.000406  3.797149  0.0  0.261564  0.00047  4.070365  0.001  0.274245  0.000296  4.088208  0.0  0.219589  0.253687  0.000573  4.057774  0.001
C  C45  1  0.93969258  0.06461146  0.65704903  1  0.296196  -0.000416  3.796951  0.0  0.26171  -0.00047  4.070201  -0.001  0.274387  -0.000296  4.088039  0.0  0.219628  0.253828  -0.000573  4.057606  -0.001
C  C46  1  0.92423046  0.84790499  0.25357575  1  -0.041297  0.009797  3.771573  0.011  -0.02089  0.003972  4.010305  0.005  -0.02812  0.003541  4.03147  0.004  0.003307  -0.016727  0.004131  3.996118  0.005
C  C47  1  0.07577438  0.15210155  0.74642713  1  -0.041321  -0.009773  3.771631  -0.01  -0.020784  -0.003969  4.010214  -0.005  -0.028012  -0.003542  4.031368  -0.004  0.003355  -0.016626  -0.004131  3.996035  -0.005
C  C48  1  0.85427763  0.69718304  0.26147530  1  -0.007756  -0.009222  3.653912  -0.009  -0.037163  -0.002883  3.89887  -0.003  -0.030735  -0.003087  3.913315  -0.003  -0.051111  -0.041243  -0.002602  3.889534  -0.002
C  C49  1  0.14572691  0.30282247  0.73853071  1  -0.007938  0.009194  3.654302  0.008  -0.037377  0.002883  3.899241  0.003  -0.030912  0.003087  3.913698  0.003  -0.051165  -0.041466  0.002602  3.889899  0.002
C  C50  1  0.72166778  0.61291993  0.17877465  1  -0.110912  0.010663  3.728447  0.011  -0.119709  0.004296  3.977582  0.005  -0.12834  0.003771  3.998887  0.005  -0.077767  -0.114247  0.004561  3.963816  0.005
C  C51  1  0.27833594  0.38708208  0.82122775  1  -0.110781  -0.010637  3.728634  -0.011  -0.119613  -0.004298  3.977747  -0.005  -0.128247  -0.003771  3.999042  -0.005  -0.077807  -0.114153  -0.004561  3.963984  -0.005
C  C52  1  0.66240419  0.68033276  0.09054117  1  0.120053  -0.00636  3.696848  -0.007  0.08746  -0.000113  3.954723  -0.001  0.097452  -0.00147  3.975466  -0.002  0.041953  0.081146  0.000854  3.941011  0.0
C  C53  1  0.33759924  0.31966812  0.90946111  1  0.119952  0.006332  3.696865  0.007  0.087428  0.000113  3.954722  0.001  0.097423  0.001469  3.975456  0.002  0.041963  0.081112  -0.000854  3.941003  0.0
C  C54  1  0.85698104  0.90824359  0.16216163  1  0.110676  -0.007046  3.617561  -0.007  0.071856  -0.000576  3.873188  -0.001  0.083239  -0.001763  3.891328  -0.003  0.053232  0.064573  0.000336  3.86198  0.0
C  C55  1  0.14302212  0.09175613  0.83783972  1  0.1107  0.00702  3.617479  0.007  0.071878  0.000572  3.873057  0.001  0.083259  0.001765  3.891196  0.003  0.05325  0.064595  -0.000335  3.861825  0.0
N  N56  1  0.51899399  0.94495263  0.80118013  1  -0.314338  0.089665  3.332494  0.108  -0.273541  0.058395  3.643091  0.076  -0.310549  0.048044  3.669543  0.066  -0.351439  -0.2508  0.061884  3.627614  0.077
N  N57  1  0.48100601  0.05504484  0.19881995  1  -0.314254  -0.089664  3.332499  -0.108  -0.273466  -0.05839  3.643081  -0.076  -0.310448  -0.048041  3.669536  -0.066  -0.3514  -0.250706  -0.061876  3.627594  -0.077
N  N58  1  0.12652129  0.87725985  0.42906846  1  -0.460602  8.3e-05  2.95392  0.0  -0.434564  7.9e-05  3.229045  0.0  -0.449154  2.5e-05  3.241974  0.0  -0.333917  -0.424602  0.000113  3.220094  0.0
N  N59  1  0.87348075  0.12273529  0.57093077  1  -0.460698  -7.5e-05  2.953934  0.0  -0.434646  -7.9e-05  3.229072  0.0  -0.449215  -2.5e-05  3.241982  0.0  -0.333896  -0.424667  -0.000114  3.220114  0.0
N  N60  1  0.25266541  0.12676448  0.44939786  1  -0.236954  -0.001812  2.809785  -0.002  -0.236006  -0.000523  3.080295  -0.001  -0.24057  -0.000595  3.093938  -0.001  -0.217247  -0.232942  -0.000482  3.071314  -0.001
N  N61  1  0.74733451  0.87324325  0.55060390  1  -0.237087  0.00182  2.809962  0.002  -0.236134  0.000524  3.080489  0.001  -0.240682  0.000594  3.094124  0.001  -0.217305  -0.233052  0.000482  3.071497  0.001
N  N62  1  0.13596205  0.08494713  0.35508284  1  -0.195794  0.000153  3.399614  0.0  -0.130249  -7.5e-05  3.639301  0.0  -0.145764  -4.7e-05  3.65567  0.0  -0.244352  -0.120067  -0.000181  3.628316  0.0
N  N63  1  0.86404150  0.91505940  0.64491912  1  -0.195877  -0.000149  3.399366  0.0  -0.13038  7.5e-05  3.639106  0.0  -0.145896  4.8e-05  3.655467  0.0  -0.24442  -0.120201  0.000181  3.628117  0.0
N  N64  1  0.72759973  0.82551295  0.08302656  1  -0.298356  0.087202  3.347097  0.105  -0.24926  0.057984  3.645213  0.076  -0.28632  0.047412  3.673074  0.065  -0.34589  -0.226571  0.061505  3.628618  0.077
N  N65  1  0.27240530  0.17448899  0.91697432  1  -0.298322  -0.087191  3.347078  -0.105  -0.249304  -0.057988  3.645201  -0.076  -0.286338  -0.047417  3.673058  -0.065  -0.345914  -0.226598  -0.061509  3.628597  -0.077
O  O66  1  0.70690344  0.70268208  0.84599937  1  -0.643786  0.014917  1.978235  0.019  -0.611096  0.008244  2.233934  0.012  -0.641789  0.005459  2.220887  0.008  -0.345412  -0.588319  0.010554  2.24288  0.015
O  O67  1  0.29309509  0.29731991  0.15399934  1  -0.643781  -0.014925  1.978185  -0.019  -0.611098  -0.008247  2.233873  -0.012  -0.641772  -0.005461  2.220837  -0.008  -0.345402  -0.588304  -0.010557  2.242818  -0.015
O  O68  1  0.97512502  0.74210331  0.78604739  1  -0.609974  0.005787  1.958586  0.007  -0.563259  0.002367  2.176034  0.003  -0.587479  0.001297  2.166476  0.002  -0.319404  -0.544037  0.004591  2.181484  0.006
O  O69  1  0.02487028  0.25790666  0.21395092  1  -0.609998  -0.005791  1.958614  -0.007  -0.563268  -0.002367  2.176071  -0.003  -0.587485  -0.001299  2.166516  -0.002  -0.319418  -0.544044  -0.004593  2.181519  -0.006
O  O70  1  0.61684538  0.23601502  0.04274568  1  -0.607802  -0.050291  2.155706  -0.064  -0.581284  -0.03332  2.454157  -0.047  -0.621882  -0.025633  2.443788  -0.038  -0.301829  -0.552191  -0.037404  2.461007  -0.051
O  O71  1  0.38315301  0.76397529  0.95724230  1  -0.607775  0.050298  2.155415  0.064  -0.581265  0.033325  2.453893  0.047  -0.621881  0.025636  2.443503  0.038  -0.301847  -0.552186  0.037409  2.460737  0.051
O  O72  1  0.80924243  0.09285476  0.97870255  1  -0.558799  0.083063  2.05629  0.108  -0.537325  0.052141  2.344125  0.075  -0.579098  0.039983  2.334328  0.061  -0.301454  -0.508836  0.058288  2.351696  0.081
O  O73  1  0.19076400  0.90713683  0.02129432  1  -0.558744  -0.083053  2.056434  -0.108  -0.537327  -0.052136  2.344295  -0.075  -0.579053  -0.039979  2.334459  -0.061  -0.301485  -0.508817  -0.058279  2.351854  -0.081
