# generated using pymatgen
data_CaH10C14(O3F2)2
_symmetry_space_group_name_H-M   'P 1'
_cell_length_a   7.81534575
_cell_length_b   10.20617892
_cell_length_c   10.20618112
_cell_angle_alpha   63.60820828
_cell_angle_beta   89.47524042
_cell_angle_gamma   89.47534555
_symmetry_Int_Tables_number   1
_chemical_formula_structural   CaH10C14(O3F2)2
_chemical_formula_sum   'Ca2 H20 C28 O12 F8'
_cell_volume   729.20323263
_cell_formula_units_Z   2
loop_
 _symmetry_equiv_pos_site_id
 _symmetry_equiv_pos_as_xyz
  1  'x, y, z'
loop_
 _atom_site_type_symbol
 _atom_site_label
 _atom_site_symmetry_multiplicity
 _atom_site_fract_x
 _atom_site_fract_y
 _atom_site_fract_z
 _atom_site_occupancy
 _atom_site_hle17_bader_spin_density
 _atom_site_hle17_ddec_charge
 _atom_site_hle17_ddec_spin_density
 _atom_site_hle17_ddec_sum_bond_order
 _atom_site_hle17_magmom
 _atom_site_hse06_10hf_bader_spin_density
 _atom_site_hse06_10hf_ddec_charge
 _atom_site_hse06_10hf_ddec_spin_density
 _atom_site_hse06_10hf_ddec_sum_bond_order
 _atom_site_hse06_10hf_magmom
 _atom_site_hse06_bader_spin_density
 _atom_site_hse06_ddec_charge
 _atom_site_hse06_ddec_spin_density
 _atom_site_hse06_ddec_sum_bond_order
 _atom_site_hse06_magmom
 _atom_site_pbe_bader_spin_density
 _atom_site_pbe_cm5_charge
 _atom_site_pbe_ddec_charge
 _atom_site_pbe_ddec_spin_density
 _atom_site_pbe_ddec_sum_bond_order
 _atom_site_pbe_magmom
Ca  Ca0  1  0.24999927  0.05272232  0.94727763  1  0  1.576078  0  1.059723  0  0  1.444832  0  1.408343  0  0  1.489283  0  1.361294  0  0  0.868976  1.410898  0  1.442493  0
Ca  Ca1  1  0.74999928  0.94727723  0.05272306  1  0  1.576064  0  1.059741  0  0  1.444821  0  1.40835  0  0  1.489268  0  1.361304  0  0  0.868978  1.410886  0  1.4425  0
H  H2  1  0.34250931  0.37181342  0.88432450  1  0  0.424959  0  0.837395  0  0  0.400793  0  0.904769  0  0  0.408554  0  0.893463  0  0  0.313114  0.394971  0  0.913275  0
H  H3  1  0.15748952  0.11567482  0.62818736  1  0  0.424941  0  0.837404  0  0  0.40076  0  0.904809  0  0  0.408519  0  0.893505  0  0  0.313103  0.394938  0  0.913315  0
H  H4  1  0.65748796  0.62818612  0.11567718  1  0  0.42494  0  0.837438  0  0  0.400785  0  0.904788  0  0  0.408547  0  0.893479  0  0  0.313099  0.394964  0  0.913293  0
H  H5  1  0.84251033  0.88432364  0.37181478  1  0  0.424936  0  0.837458  0  0  0.400769  0  0.90481  0  0  0.40853  0  0.893502  0  0  0.313112  0.394947  0  0.913315  0
H  H6  1  0.50432050  0.26721814  0.94204206  1  0  0.443443  0  0.852749  0  0  0.409642  0  0.920806  0  0  0.421402  0  0.903526  0  0  0.301417  0.401245  0  0.933101  0
H  H7  1  0.99567958  0.05795758  0.73278353  1  0  0.443406  0  0.852804  0  0  0.409597  0  0.920869  0  0  0.421358  0  0.903588  0  0  0.301414  0.401203  0  0.933159  0
H  H8  1  0.49567933  0.73278141  0.05795959  1  0  0.443442  0  0.852745  0  0  0.409647  0  0.920791  0  0  0.421408  0  0.903511  0  0  0.301424  0.401251  0  0.933084  0
H  H9  1  0.00431897  0.94204197  0.26721813  1  0  0.443443  0  0.852756  0  0  0.409633  0  0.920819  0  0  0.421394  0  0.903539  0  0  0.301424  0.401239  0  0.93311  0
H  H10  1  0.33168659  0.86040240  0.73970275  1  0  0.14455  0  0.940662  0  0  0.14961  0  1.007515  0  0  0.154053  0  1.004991  0  0  0.11817  0.146391  0  1.009621  0
H  H11  1  0.16831028  0.26029847  0.13959845  1  0  0.144584  0  0.940661  0  0  0.149646  0  1.007505  0  0  0.154088  0  1.004981  0  0  0.11819  0.146427  0  1.00961  0
H  H12  1  0.66831196  0.13959714  0.26029794  1  0  0.14457  0  0.940684  0  0  0.149628  0  1.007531  0  0  0.154071  0  1.005008  0  0  0.118177  0.14641  0  1.009636  0
H  H13  1  0.83169076  0.73970544  0.86039829  1  0  0.144587  0  0.940667  0  0  0.149645  0  1.007511  0  0  0.154089  0  1.004988  0  0  0.118188  0.146426  0  1.009619  0
H  H14  1  0.51144052  0.63443588  0.83013830  1  0  0.099801  0  0.951763  0  0  0.104386  0  1.017418  0  0  0.108258  0  1.013581  0  0  0.102598  0.101789  0  1.019801  0
H  H15  1  0.98855828  0.16986148  0.36556457  1  0  0.099796  0  0.951764  0  0  0.104375  0  1.017426  0  0  0.10825  0  1.013586  0  0  0.102594  0.101777  0  1.019809  0
H  H16  1  0.48855674  0.36556256  0.16986093  1  0  0.099849  0  0.951702  0  0  0.104415  0  1.01739  0  0  0.108299  0  1.013539  0  0  0.102592  0.101819  0  1.019774  0
H  H17  1  0.01144538  0.83013807  0.63443508  1  0  0.09982  0  0.951732  0  0  0.104376  0  1.017431  0  0  0.108265  0  1.013575  0  0  0.102591  0.10178  0  1.019815  0
H  H18  1  0.62085326  0.54137718  0.65372734  1  0  0.125034  0  0.950923  0  0  0.130477  0  1.01709  0  0  0.134057  0  1.015824  0  0  0.104118  0.127914  0  1.018234  0
H  H19  1  0.87914905  0.34627182  0.45862638  1  0  0.125018  0  0.950897  0  0  0.130472  0  1.017052  0  0  0.134052  0  1.015784  0  0  0.104117  0.127908  0  1.018201  0
H  H20  1  0.37914781  0.45862455  0.34627038  1  0  0.125012  0  0.950929  0  0  0.130465  0  1.017077  0  0  0.134048  0  1.015805  0  0  0.104118  0.127902  0  1.018224  0
H  H21  1  0.12085335  0.65372664  0.54137475  1  0  0.125018  0  0.950959  0  0  0.130468  0  1.017124  0  0  0.134048  0  1.015856  0  0  0.104116  0.127905  0  1.018267  0
C  C22  1  0.40406200  0.84608546  0.41395999  1  0  -0.281711  0  3.743738  0  0  -0.280584  0  3.998733  0  0  -0.29085  0  4.014534  0  0  -0.033379  -0.273634  0  3.988245  0
C  C23  1  0.09593767  0.58604067  0.15391561  1  0  -0.281763  0  3.74369  0  0  -0.280555  0  3.998676  0  0  -0.29082  0  4.014476  0  0  -0.033385  -0.273607  0  3.98819  0
C  C24  1  0.59593780  0.15391517  0.58603824  1  0  -0.281755  0  3.743701  0  0  -0.280599  0  3.998685  0  0  -0.290865  0  4.014486  0  0  -0.033369  -0.27365  0  3.988198  0
C  C25  1  0.90406470  0.41396108  0.84608503  1  0  -0.281699  0  3.743629  0  0  -0.28057  0  3.998663  0  0  -0.290835  0  4.014463  0  0  -0.033393  -0.273618  0  3.988172  0
C  C26  1  0.34489177  0.89143221  0.51727389  1  0  0.310634  0  3.769124  0  0  0.290299  0  4.054269  0  0  0.302303  0  4.06574  0  0  0.101505  0.282245  0  4.046389  0
C  C27  1  0.15510857  0.48272815  0.10856760  1  0  0.310667  0  3.769143  0  0  0.290336  0  4.054267  0  0  0.30234  0  4.065739  0  0  0.10152  0.282281  0  4.04639  0
C  C28  1  0.65511063  0.10856626  0.48272822  1  0  0.31067  0  3.769147  0  0  0.290322  0  4.054286  0  0  0.302327  0  4.065756  0  0  0.101506  0.282267  0  4.046408  0
C  C29  1  0.84489248  0.51727467  0.89142963  1  0  0.310699  0  3.769145  0  0  0.290347  0  4.054295  0  0  0.30235  0  4.065768  0  0  0.101522  0.282291  0  4.046416  0
C  C30  1  0.38156070  0.81902731  0.66523147  1  0  -0.191881  0  3.728179  0  0  -0.227184  0  4.002438  0  0  -0.232982  0  4.019911  0  0  -0.103207  -0.223635  0  3.990904  0
C  C31  1  0.11843834  0.33477023  0.18097257  1  0  -0.191903  0  3.728109  0  0  -0.227216  0  4.002371  0  0  -0.233015  0  4.019845  0  0  -0.103208  -0.223666  0  3.990834  0
C  C32  1  0.61844169  0.18097224  0.33476917  1  0  -0.191944  0  3.728207  0  0  -0.227241  0  4.002461  0  0  -0.23304  0  4.019937  0  0  -0.103207  -0.223691  0  3.990927  0
C  C33  1  0.88156272  0.66523260  0.81902564  1  0  -0.191949  0  3.728201  0  0  -0.227237  0  4.002446  0  0  -0.233039  0  4.019927  0  0  -0.103213  -0.223689  0  3.990915  0
C  C34  1  0.48154326  0.69241758  0.71436807  1  0  0.004045  0  3.746947  0  0  -0.012922  0  4.015418  0  0  -0.009637  0  4.032688  0  0  -0.081312  -0.014932  0  4.003605  0
C  C35  1  0.01845628  0.28563154  0.30758463  1  0  0.004036  0  3.746874  0  0  -0.012919  0  4.015343  0  0  -0.009641  0  4.032617  0  0  -0.081317  -0.014931  0  4.003533  0
C  C36  1  0.51845783  0.30758196  0.28562966  1  0  0.004048  0  3.746866  0  0  -0.012905  0  4.015303  0  0  -0.009628  0  4.032566  0  0  -0.08128  -0.014913  0  4.003481  0
C  C37  1  0.98154610  0.71436912  0.69241649  1  0  0.00402  0  3.74693  0  0  -0.012937  0  4.015399  0  0  -0.009667  0  4.032667  0  0  -0.08132  -0.014948  0  4.003585  0
C  C38  1  0.54321605  0.64023130  0.61757843  1  0  -0.210105  0  3.780766  0  0  -0.245464  0  4.053589  0  0  -0.251568  0  4.072557  0  0  -0.111703  -0.241773  0  4.04158  0
C  C39  1  0.95678599  0.38242078  0.35977155  1  0  -0.210081  0  3.780662  0  0  -0.245424  0  4.053494  0  0  -0.251529  0  4.072471  0  0  -0.11168  -0.241734  0  4.041485  0
C  C40  1  0.45678631  0.35976933  0.38241879  1  0  -0.210057  0  3.780691  0  0  -0.24541  0  4.053509  0  0  -0.25152  0  4.072495  0  0  -0.111679  -0.241719  0  4.041502  0
C  C41  1  0.04321768  0.61757877  0.64022908  1  0  -0.210115  0  3.780751  0  0  -0.245455  0  4.053559  0  0  -0.251567  0  4.072554  0  0  -0.111709  -0.241762  0  4.041547  0
C  C42  1  0.50394237  0.71822169  0.47045831  1  0  0.312399  0  3.770547  0  0  0.296537  0  4.049933  0  0  0.309578  0  4.058793  0  0  0.103374  0.287485  0  4.044358  0
C  C43  1  0.99606118  0.52954203  0.28178071  1  0  0.312348  0  3.770606  0  0  0.296414  0  4.050068  0  0  0.309453  0  4.058929  0  0  0.103298  0.287361  0  4.044496  0
C  C44  1  0.49605742  0.28178004  0.52953942  1  0  0.312365  0  3.770518  0  0  0.296467  0  4.049954  0  0  0.309507  0  4.058815  0  0  0.103306  0.287415  0  4.044381  0
C  C45  1  0.00394375  0.47045862  0.71821843  1  0  0.312398  0  3.770548  0  0  0.296498  0  4.049996  0  0  0.309538  0  4.058852  0  0  0.103348  0.287446  0  4.044418  0
C  C46  1  0.36512501  0.92894861  0.25366837  1  0  0.722836  0  3.890313  0  0  0.668191  0  4.191158  0  0  0.704319  0  4.180195  0  0  0.22695  0.643296  0  4.198337  0
C  C47  1  0.13487213  0.74633264  0.07105079  1  0  0.722895  0  3.889921  0  0  0.668147  0  4.190921  0  0  0.704274  0  4.17996  0  0  0.226955  0.643254  0  4.198102  0
C  C48  1  0.63487354  0.07104984  0.74633183  1  0  0.722882  0  3.890213  0  0  0.668247  0  4.191028  0  0  0.704374  0  4.180066  0  0  0.226998  0.643353  0  4.198209  0
C  C49  1  0.86512511  0.25367019  0.92894941  1  0  0.722845  0  3.890196  0  0  0.668205  0  4.191031  0  0  0.704332  0  4.180068  0  0  0.226976  0.643309  0  4.198207  0
O  O50  1  0.37664828  0.27025606  0.94011812  1  0  -0.874936  0  1.798268  0  0  -0.827456  0  1.992649  0  0  -0.84611  0  1.961284  0  0  -0.613486  -0.813844  0  2.014829  0
O  O51  1  0.12334983  0.05988157  0.72974460  1  0  -0.874884  0  1.798327  0  0  -0.827367  0  1.992767  0  0  -0.846019  0  1.961405  0  0  -0.613474  -0.813758  0  2.014947  0
O  O52  1  0.62335027  0.72974349  0.05988256  1  0  -0.874903  0  1.798299  0  0  -0.827448  0  1.992616  0  0  -0.846103  0  1.96125  0  0  -0.613474  -0.813836  0  2.014795  0
O  O53  1  0.87664744  0.94011798  0.27025708  1  0  -0.874912  0  1.798339  0  0  -0.827418  0  1.992717  0  0  -0.846071  0  1.961351  0  0  -0.613489  -0.813806  0  2.014895  0
O  O54  1  0.48656376  0.95622116  0.16231091  1  0  -0.719686  0  2.004097  0  0  -0.661099  0  2.258613  0  0  -0.690298  0  2.248888  0  0  -0.365602  -0.640055  0  2.264905  0
O  O55  1  0.01343346  0.83769091  0.04377889  1  0  -0.719684  0  2.003962  0  0  -0.661065  0  2.258531  0  0  -0.690265  0  2.248809  0  0  -0.365575  -0.640009  0  2.264797  0
O  O56  1  0.51343476  0.04377947  0.83768831  1  0  -0.719713  0  2.004124  0  0  -0.661126  0  2.258639  0  0  -0.690327  0  2.248914  0  0  -0.365606  -0.640078  0  2.264921  0
O  O57  1  0.98656508  0.16231084  0.95622277  1  0  -0.71969  0  2.004029  0  0  -0.661103  0  2.258541  0  0  -0.690301  0  2.248814  0  0  -0.365612  -0.640068  0  2.264856  0
O  O58  1  0.21168035  0.96830775  0.21440109  1  0  -0.677388  0  1.990893  0  0  -0.616108  0  2.221853  0  0  -0.643698  0  2.211294  0  0  -0.329549  -0.596577  0  2.228913  0
O  O59  1  0.28831846  0.78560029  0.03169185  1  0  -0.677425  0  1.990754  0  0  -0.616123  0  2.221783  0  0  -0.643714  0  2.211226  0  0  -0.329582  -0.596592  0  2.228845  0
O  O60  1  0.78831948  0.03169070  0.78559909  1  0  -0.677392  0  1.990828  0  0  -0.616137  0  2.221796  0  0  -0.643727  0  2.211239  0  0  -0.329589  -0.596606  0  2.228859  0
O  O61  1  0.71168007  0.21440144  0.96830883  1  0  -0.677422  0  1.990871  0  0  -0.616135  0  2.221812  0  0  -0.643727  0  2.211254  0  0  -0.32958  -0.596603  0  2.228874  0
F  F62  1  0.24698243  0.01588472  0.46875339  1  0  -0.219122  0  1.246126  0  0  -0.150871  0  1.405758  0  0  -0.162168  0  1.398428  0  0  -0.085133  -0.142513  0  1.41045  0
F  F63  1  0.25301706  0.53124707  0.98411456  1  0  -0.219145  0  1.246178  0  0  -0.150904  0  1.405822  0  0  -0.1622  0  1.398492  0  0  -0.085157  -0.142546  0  1.410516  0
F  F64  1  0.75301739  0.98411482  0.53124631  1  0  -0.219115  0  1.246213  0  0  -0.150863  0  1.405849  0  0  -0.162161  0  1.398521  0  0  -0.085137  -0.142505  0  1.410542  0
F  F65  1  0.74698271  0.46875684  0.01588220  1  0  -0.219166  0  1.246207  0  0  -0.150885  0  1.405829  0  0  -0.162182  0  1.3985  0  0  -0.085127  -0.142528  0  1.41052  0
F  F66  1  0.56335311  0.66604581  0.37652692  1  0  -0.200903  0  1.228734  0  0  -0.150656  0  1.398543  0  0  -0.159843  0  1.388389  0  0  -0.082362  -0.143819  0  1.405315  0
F  F67  1  0.93664789  0.62347273  0.33395601  1  0  -0.200848  0  1.228814  0  0  -0.150587  0  1.398645  0  0  -0.159772  0  1.388491  0  0  -0.082312  -0.14375  0  1.405417  0
F  F68  1  0.43664671  0.33395373  0.62347277  1  0  -0.200914  0  1.228739  0  0  -0.150664  0  1.398562  0  0  -0.159851  0  1.388408  0  0  -0.082364  -0.143827  0  1.405335  0
F  F69  1  0.06335067  0.37652572  0.66604517  1  0  -0.200868  0  1.22885  0  0  -0.150614  0  1.398675  0  0  -0.1598  0  1.38852  0  0  -0.082322  -0.143777  0  1.405446  0
