# generated using pymatgen
data_ZnH20C22(NO2)2
_symmetry_space_group_name_H-M   'P 1'
_cell_length_a   7.65682415
_cell_length_b   8.82202983
_cell_length_c   15.40676420
_cell_angle_alpha   86.82269727
_cell_angle_beta   90.59666656
_cell_angle_gamma   82.38280020
_symmetry_Int_Tables_number   1
_chemical_formula_structural   ZnH20C22(NO2)2
_chemical_formula_sum   'Zn2 H40 C44 N4 O8'
_cell_volume   1029.77242741
_cell_formula_units_Z   2
loop_
 _symmetry_equiv_pos_site_id
 _symmetry_equiv_pos_as_xyz
  1  'x, y, z'
loop_
 _atom_site_type_symbol
 _atom_site_label
 _atom_site_symmetry_multiplicity
 _atom_site_fract_x
 _atom_site_fract_y
 _atom_site_fract_z
 _atom_site_occupancy
 _atom_site_hle17_bader_spin_density
 _atom_site_hle17_ddec_charge
 _atom_site_hle17_ddec_spin_density
 _atom_site_hle17_ddec_sum_bond_order
 _atom_site_hle17_magmom
 _atom_site_hse06_10hf_bader_spin_density
 _atom_site_hse06_10hf_ddec_charge
 _atom_site_hse06_10hf_ddec_spin_density
 _atom_site_hse06_10hf_ddec_sum_bond_order
 _atom_site_hse06_10hf_magmom
 _atom_site_hse06_bader_spin_density
 _atom_site_hse06_ddec_charge
 _atom_site_hse06_ddec_spin_density
 _atom_site_hse06_ddec_sum_bond_order
 _atom_site_hse06_magmom
 _atom_site_pbe_bader_spin_density
 _atom_site_pbe_cm5_charge
 _atom_site_pbe_ddec_charge
 _atom_site_pbe_ddec_spin_density
 _atom_site_pbe_ddec_sum_bond_order
 _atom_site_pbe_magmom
Zn  Zn0  1  0.61901727  0.19626150  0.75498734  1  0  0.984401  0  1.875845  0  0  0.787811  0  2.359608  0  0  0.836689  0  2.302717  0  0  0.685297  0.75224  0  2.400054  0
Zn  Zn1  1  0.38097270  0.80372815  0.24501299  1  0  0.984368  0  1.876002  0  0  0.787775  0  2.359752  0  0  0.836648  0  2.302864  0  0  0.685289  0.752203  0  2.400198  0
H  H2  1  0.49572447  0.50947581  0.79733655  1  0  0.078133  0  0.955699  0  0  0.086358  0  1.019903  0  0  0.088025  0  1.019356  0  0  0.117234  0.084937  0  1.020561  0
H  H3  1  0.50428614  0.49051269  0.20265522  1  0  0.078019  0  0.955651  0  0  0.086265  0  1.019851  0  0  0.087927  0  1.019312  0  0  0.117179  0.084846  0  1.020502  0
H  H4  1  0.27618496  0.64247994  0.89466352  1  0  0.103227  0  0.958532  0  0  0.113823  0  1.018351  0  0  0.11645  0  1.01832  0  0  0.107711  0.112257  0  1.017896  0
H  H5  1  0.72384916  0.35753496  0.10533103  1  0  0.103269  0  0.958502  0  0  0.113875  0  1.018316  0  0  0.116502  0  1.018284  0  0  0.107744  0.112318  0  1.017856  0
H  H6  1  0.24794095  0.20487019  0.03074165  1  0  0.116159  0  0.945856  0  0  0.126584  0  1.004055  0  0  0.12989  0  1.003237  0  0  0.110229  0.124102  0  1.004931  0
H  H7  1  0.75206519  0.79516192  0.96926810  1  0  0.116104  0  0.945906  0  0  0.126563  0  1.004095  0  0  0.129872  0  1.003272  0  0  0.110173  0.124082  0  1.004972  0
H  H8  1  0.47325050  0.09001124  0.92831825  1  0  0.075932  0  0.934127  0  0  0.087316  0  0.993012  0  0  0.089552  0  0.991067  0  0  0.117889  0.085995  0  0.99369  0
H  H9  1  0.52673853  0.90999563  0.07168992  1  0  0.075998  0  0.934204  0  0  0.087369  0  0.993086  0  0  0.089606  0  0.991138  0  0  0.117931  0.086026  0  0.993781  0
H  H10  1  0.10005952  0.63224536  0.02502353  1  0  0.090258  0  0.913156  0  0  0.109122  0  0.966295  0  0  0.110606  0  0.965612  0  0  0.0991  0.107972  0  0.966828  0
H  H11  1  0.89996688  0.36778673  0.97497372  1  0  0.090102  0  0.912839  0  0  0.108879  0  0.966158  0  0  0.110381  0  0.965488  0  0  0.09898  0.107738  0  0.966673  0
H  H12  1  0.09496046  0.46241292  0.08882684  1  0  0.099857  0  0.958913  0  0  0.114097  0  1.022479  0  0  0.115598  0  1.022075  0  0  0.098244  0.112948  0  1.022866  0
H  H13  1  0.90506451  0.53762148  0.91117489  1  0  0.099831  0  0.95891  0  0  0.11402  0  1.022589  0  0  0.115544  0  1.02219  0  0  0.098233  0.11287  0  1.022977  0
H  H14  1  0.22016464  0.18689595  0.77333285  1  0  0.074038  0  0.945952  0  0  0.083607  0  1.008273  0  0  0.08574  0  1.007078  0  0  0.113945  0.08159  0  1.009287  0
H  H15  1  0.77982967  0.81310629  0.22666246  1  0  0.074043  0  0.946046  0  0  0.083638  0  1.008341  0  0  0.085769  0  1.007148  0  0  0.113978  0.081619  0  1.009355  0
H  H16  1  0.97508914  0.13802389  0.67613022  1  0  0.112292  0  0.976815  0  0  0.121772  0  1.038416  0  0  0.124647  0  1.038038  0  0  0.10811  0.119291  0  1.0394  0
H  H17  1  0.02490255  0.86197149  0.32386989  1  0  0.112279  0  0.976732  0  0  0.121757  0  1.038343  0  0  0.12463  0  1.037968  0  0  0.108086  0.119272  0  1.039332  0
H  H18  1  0.33464452  0.12562262  0.46301815  1  0  0.125562  0  0.963361  0  0  0.1339  0  1.02578  0  0  0.137276  0  1.025001  0  0  0.109788  0.131404  0  1.02666  0
H  H19  1  0.66533548  0.87437043  0.53697629  1  0  0.125541  0  0.963341  0  0  0.13386  0  1.025815  0  0  0.137245  0  1.025009  0  0  0.109776  0.131393  0  1.026659  0
H  H20  1  0.57179286  0.16647063  0.56991068  1  0  0.081873  0  0.946401  0  0  0.089831  0  1.012915  0  0  0.092705  0  1.009685  0  0  0.117654  0.0877  0  1.015495  0
H  H21  1  0.42819223  0.83353043  0.43007953  1  0  0.081781  0  0.94654  0  0  0.089773  0  1.01301  0  0  0.092646  0  1.009784  0  0  0.117663  0.087642  0  1.015594  0
H  H22  1  0.00465434  0.14048393  0.43740896  1  0  0.090135  0  0.971181  0  0  0.10318  0  1.036644  0  0  0.103993  0  1.038327  0  0  0.094318  0.102408  0  1.035794  0
H  H23  1  0.99532587  0.85949996  0.56258774  1  0  0.090139  0  0.971046  0  0  0.103131  0  1.036593  0  0  0.103938  0  1.038282  0  0  0.094314  0.102359  0  1.035741  0
H  H24  1  0.86342395  0.13064729  0.52846188  1  0  0.086493  0  0.933791  0  0  0.103505  0  0.994896  0  0  0.104741  0  0.99457  0  0  0.096021  0.102448  0  0.995383  0
H  H25  1  0.13656011  0.86932975  0.47153828  1  0  0.086498  0  0.933772  0  0  0.103463  0  0.994963  0  0  0.104695  0  0.99465  0  0  0.095973  0.10241  0  0.995439  0
H  H26  1  0.90405845  0.48640896  0.57979791  1  0  0.106801  0  0.93513  0  0  0.122476  0  0.995737  0  0  0.125065  0  0.994165  0  0  0.100301  0.120665  0  0.996768  0
H  H27  1  0.09596817  0.51355555  0.42020497  1  0  0.106865  0  0.935181  0  0  0.122556  0  0.995792  0  0  0.125148  0  0.994211  0  0  0.100334  0.120741  0  0.99683  0
H  H28  1  0.78362614  0.63220066  0.63585696  1  0  0.112187  0  0.935468  0  0  0.127974  0  0.997895  0  0  0.129961  0  0.997081  0  0  0.104426  0.126501  0  0.998597  0
H  H29  1  0.21637819  0.36778320  0.36412593  1  0  0.112132  0  0.935435  0  0  0.12797  0  0.997839  0  0  0.129928  0  0.997058  0  0  0.104399  0.126506  0  0.998542  0
H  H30  1  0.20700676  0.47042843  0.56781339  1  0  0.082197  0  0.97101  0  0  0.093108  0  1.034996  0  0  0.095113  0  1.035607  0  0  0.09395  0.091856  0  1.034005  0
H  H31  1  0.79300700  0.52956128  0.43219260  1  0  0.082275  0  0.971004  0  0  0.093164  0  1.034992  0  0  0.095168  0  1.035602  0  0  0.093949  0.091912  0  1.034  0
H  H32  1  0.48189953  0.58521849  0.58638551  1  0  0.091068  0  0.948424  0  0  0.104386  0  1.004275  0  0  0.107275  0  1.002924  0  0  0.099004  0.102115  0  1.005709  0
H  H33  1  0.51810617  0.41478153  0.41362147  1  0  0.091003  0  0.948404  0  0  0.104278  0  1.004317  0  0  0.107164  0  1.002964  0  0  0.098981  0.102007  0  1.005747  0
H  H34  1  0.49040011  0.79343769  0.69030816  1  0  0.089932  0  0.967778  0  0  0.099329  0  1.030627  0  0  0.10193  0  1.030012  0  0  0.094453  0.097409  0  1.031333  0
H  H35  1  0.50958848  0.20657031  0.30969477  1  0  0.089905  0  0.967747  0  0  0.099309  0  1.030595  0  0  0.101909  0  1.029981  0  0  0.09444  0.097388  0  1.031307  0
H  H36  1  0.23002594  0.86643954  0.78124197  1  0  0.078649  0  0.956286  0  0  0.092797  0  1.012814  0  0  0.095474  0  1.011737  0  0  0.093355  0.091197  0  1.012589  0
H  H37  1  0.76995797  0.13356385  0.21875792  1  0  0.078695  0  0.956238  0  0  0.092815  0  1.012794  0  0  0.095493  0  1.011717  0  0  0.093377  0.091218  0  1.012571  0
H  H38  1  0.96469550  0.77987263  0.84820405  1  0  0.097109  0  0.935512  0  0  0.112567  0  0.99624  0  0  0.115149  0  0.994121  0  0  0.095769  0.110927  0  0.997766  0
H  H39  1  0.03529949  0.22011016  0.15179712  1  0  0.097074  0  0.935541  0  0  0.11259  0  0.996206  0  0  0.115178  0  0.994079  0  0  0.095757  0.110937  0  0.997726  0
H  H40  1  0.82913397  0.67489919  0.78858927  1  0  0.113539  0  0.94558  0  0  0.130543  0  1.003295  0  0  0.132673  0  1.002527  0  0  0.104533  0.128954  0  1.004153  0
H  H41  1  0.17085865  0.32509732  0.21140690  1  0  0.113567  0  0.945491  0  0  0.130566  0  1.003214  0  0  0.132681  0  1.002465  0  0  0.104559  0.128966  0  1.004067  0
C  C42  1  0.43958501  0.44680309  0.85073945  1  0  0.149017  0  3.691128  0  0  0.117206  0  3.93988  0  0  0.125177  0  3.958251  0  0  0.054978  0.112041  0  3.927603  0
C  C43  1  0.56042241  0.55319917  0.14925705  1  0  0.149269  0  3.690845  0  0  0.11746  0  3.939635  0  0  0.125431  0  3.958006  0  0  0.055135  0.112287  0  3.927375  0
C  C44  1  0.31601611  0.51964304  0.90498354  1  0  -0.159477  0  3.696093  0  0  -0.178719  0  3.943086  0  0  -0.187512  0  3.965703  0  0  -0.077089  -0.17336  0  3.928222  0
C  C45  1  0.68400714  0.48036727  0.09501451  1  0  -0.159641  0  3.696163  0  0  -0.178945  0  3.943167  0  0  -0.187715  0  3.9658  0  0  -0.077188  -0.173617  0  3.928281  0
C  C46  1  0.23860819  0.43482697  0.96979477  1  0  0.178263  0  3.695891  0  0  0.192952  0  3.93316  0  0  0.198995  0  3.955004  0  0  0.023802  0.189013  0  3.918553  0
C  C47  1  0.76141168  0.56519826  0.03020732  1  0  0.178227  0  3.69616  0  0  0.193102  0  3.933312  0  0  0.199088  0  3.955297  0  0  0.02395  0.189243  0  3.918598  0
C  C48  1  0.29931199  0.27736374  0.98002125  1  0  -0.176259  0  3.696824  0  0  -0.192137  0  3.938946  0  0  -0.201154  0  3.961317  0  0  -0.081826  -0.186355  0  3.924176  0
C  C49  1  0.70069693  0.72265690  0.01998304  1  0  -0.176355  0  3.69705  0  0  -0.192344  0  3.939171  0  0  -0.201341  0  3.96157  0  0  -0.081939  -0.18659  0  3.924374  0
C  C50  1  0.42476524  0.21233549  0.92365379  1  0  0.120498  0  3.736803  0  0  0.089253  0  3.986978  0  0  0.09633  0  4.006223  0  0  0.045233  0.08465  0  3.973689  0
C  C51  1  0.57523612  0.78767482  0.07635027  1  0  0.120419  0  3.737137  0  0  0.089231  0  3.987317  0  0  0.096306  0  4.006559  0  0  0.045245  0.08465  0  3.97403  0
C  C52  1  0.08974372  0.50964776  0.02140647  1  0  -0.160231  0  3.661801  0  0  -0.202734  0  3.909496  0  0  -0.204585  0  3.92028  0  0  -0.153726  -0.20127  0  3.902079  0
C  C53  1  0.91027465  0.49038663  0.97859401  1  0  -0.159706  0  3.661367  0  0  -0.20219  0  3.90897  0  0  -0.204143  0  3.919873  0  0  -0.153504  -0.200741  0  3.901513  0
C  C54  1  0.24272587  0.16927706  0.70463468  1  0  0.129724  0  3.729522  0  0  0.097236  0  3.984456  0  0  0.104554  0  4.004156  0  0  0.045634  0.094167  0  3.966561  0
C  C55  1  0.75725796  0.83072516  0.29536005  1  0  0.129751  0  3.729553  0  0  0.097237  0  3.98444  0  0  0.104554  0  4.004145  0  0  0.045563  0.094167  0  3.96655  0
C  C56  1  0.10545250  0.14414478  0.65013385  1  0  -0.161185  0  3.690776  0  0  -0.178625  0  3.936342  0  0  -0.18812  0  3.959934  0  0  -0.08255  -0.171486  0  3.916654  0
C  C57  1  0.89453800  0.85584944  0.34986501  1  0  -0.161325  0  3.69063  0  0  -0.178811  0  3.936204  0  0  -0.188308  0  3.959801  0  0  -0.082576  -0.171674  0  3.916519  0
C  C58  1  0.13531255  0.12608488  0.56172285  1  0  0.177208  0  3.690977  0  0  0.193446  0  3.925679  0  0  0.199898  0  3.94678  0  0  0.02262  0.189143  0  3.910594  0
C  C59  1  0.86467659  0.87390017  0.43827310  1  0  0.177232  0  3.690927  0  0  0.193616  0  3.925474  0  0  0.200066  0  3.946575  0  0  0.022736  0.189308  0  3.910397  0
C  C60  1  0.30571407  0.13719175  0.53167543  1  0  -0.185443  0  3.685893  0  0  -0.200788  0  3.929774  0  0  -0.210216  0  3.951741  0  0  -0.084436  -0.194958  0  3.916031  0
C  C61  1  0.69427358  0.86280361  0.46832211  1  0  -0.185396  0  3.68583  0  0  -0.200799  0  3.929776  0  0  -0.210224  0  3.951751  0  0  -0.084441  -0.194983  0  3.91601  0
C  C62  1  0.43726164  0.15960638  0.59035239  1  0  0.138786  0  3.712715  0  0  0.10594  0  3.964573  0  0  0.114076  0  3.982292  0  0  0.047723  0.100438  0  3.953659  0
C  C63  1  0.56272252  0.84039354  0.40964177  1  0  0.138877  0  3.712669  0  0  0.106015  0  3.964502  0  0  0.114149  0  3.982222  0  0  0.047768  0.100511  0  3.953603  0
C  C64  1  0.99282963  0.08791751  0.50288226  1  0  -0.154511  0  3.659246  0  0  -0.195636  0  3.901494  0  0  -0.19758  0  3.91256  0  0  -0.156573  -0.194253  0  3.894262  0
C  C65  1  0.00715706  0.91206871  0.49712016  1  0  -0.154448  0  3.659021  0  0  -0.195654  0  3.901425  0  0  -0.197596  0  3.912487  0  0  -0.156667  -0.194259  0  3.894194  0
C  C66  1  0.83748302  0.41881918  0.70874201  1  0  0.678163  0  3.895058  0  0  0.634703  0  4.195347  0  0  0.666803  0  4.189568  0  0  0.196433  0.612914  0  4.19831  0
C  C67  1  0.16251949  0.58117509  0.29126195  1  0  0.678181  0  3.895317  0  0  0.634707  0  4.195618  0  0  0.666827  0  4.189821  0  0  0.19642  0.61292  0  4.19859  0
C  C68  1  0.89445582  0.53863769  0.64293971  1  0  -0.306613  0  3.710113  0  0  -0.350449  0  3.952167  0  0  -0.355921  0  3.960111  0  0  -0.163252  -0.346404  0  3.946373  0
C  C69  1  0.10554697  0.46134510  0.35706076  1  0  -0.306619  0  3.710085  0  0  -0.350565  0  3.952193  0  0  -0.356024  0  3.960136  0  0  -0.163277  -0.346537  0  3.946414  0
C  C70  1  0.06158800  0.60331703  0.66272615  1  0  0.079426  0  3.713947  0  0  0.094877  0  3.947921  0  0  0.095353  0  3.971295  0  0  -0.008005  0.094022  0  3.931694  0
C  C71  1  0.93841046  0.39667722  0.33727525  1  0  0.079526  0  3.71408  0  0  0.095049  0  3.947979  0  0  0.095525  0  3.97135  0  0  -0.007977  0.094198  0  3.931753  0
C  C72  1  0.21225121  0.55819771  0.61463541  1  0  -0.121538  0  3.750513  0  0  -0.141421  0  4.000644  0  0  -0.144415  0  4.02302  0  0  -0.095693  -0.139103  0  3.983852  0
C  C73  1  0.78775457  0.44180115  0.38536967  1  0  -0.121763  0  3.750496  0  0  -0.141633  0  4.000578  0  0  -0.144635  0  4.022967  0  0  -0.09571  -0.139319  0  3.983785  0
C  C74  1  0.36671967  0.62381813  0.62431920  1  0  -0.06905  0  3.790646  0  0  -0.085598  0  4.045964  0  0  -0.086665  0  4.066182  0  0  -0.097691  -0.084569  0  4.032396  0
C  C75  1  0.63328354  0.37617957  0.37568333  1  0  -0.068859  0  3.790632  0  0  -0.085374  0  4.045958  0  0  -0.086437  0  4.066173  0  0  -0.097662  -0.084343  0  4.032385  0
C  C76  1  0.37253858  0.73752356  0.68344607  1  0  -0.084856  0  3.799281  0  0  -0.097763  0  4.052255  0  0  -0.099853  0  4.074239  0  0  -0.102555  -0.096628  0  4.037219  0
C  C77  1  0.62745624  0.26247756  0.31655576  1  0  -0.08494  0  3.799243  0  0  -0.097848  0  4.052201  0  0  -0.099936  0  4.074181  0  0  -0.102587  -0.09671  0  4.037167  0
C  C78  1  0.22541995  0.77924637  0.73390140  1  0  -0.135394  0  3.789538  0  0  -0.152588  0  4.038454  0  0  -0.155626  0  4.061316  0  0  -0.100294  -0.15084  0  4.021851  0
C  C79  1  0.77457201  0.22075589  0.26609912  1  0  -0.135335  0  3.789458  0  0  -0.1525  0  4.038361  0  0  -0.155536  0  4.061223  0  0  -0.100247  -0.150758  0  4.02177  0
C  C80  1  0.06985135  0.71322616  0.72509768  1  0  0.069225  0  3.706424  0  0  0.083553  0  3.942478  0  0  0.083276  0  3.966356  0  0  -0.009807  0.084085  0  3.926908  0
C  C81  1  0.93014640  0.28677267  0.27490356  1  0  0.069197  0  3.706511  0  0  0.083492  0  3.942575  0  0  0.083215  0  3.966456  0  0  -0.009822  0.08401  0  3.926991  0
C  C82  1  0.91664804  0.76401049  0.78234549  1  0  -0.301612  0  3.706316  0  0  -0.345842  0  3.948345  0  0  -0.351302  0  3.956011  0  0  -0.163601  -0.342354  0  3.943769  0
C  C83  1  0.08334383  0.23598375  0.21765466  1  0  -0.301544  0  3.706181  0  0  -0.345853  0  3.948297  0  0  -0.351305  0  3.955973  0  0  -0.163587  -0.342314  0  3.943666  0
C  C84  1  0.80329772  0.91216096  0.74962041  1  0  0.68221  0  3.87261  0  0  0.640216  0  4.169136  0  0  0.672774  0  4.162649  0  0  0.198156  0.617874  0  4.173184  0
C  C85  1  0.19670259  0.08783904  0.25038336  1  0  0.682301  0  3.872779  0  0  0.640341  0  4.169251  0  0  0.672902  0  4.162762  0  0  0.198214  0.617978  0  4.173303  0
N  N86  1  0.49173882  0.29480968  0.85877072  1  0  -0.336968  0  3.313889  0  0  -0.254218  0  3.593041  0  0  -0.273431  0  3.60625  0  0  -0.334628  -0.241478  0  3.584399  0
N  N87  1  0.50826202  0.70518455  0.14122611  1  0  -0.336928  0  3.314139  0  0  -0.254244  0  3.593353  0  0  -0.273457  0  3.60657  0  0  -0.334702  -0.241505  0  3.584704  0
N  N88  1  0.40748420  0.17357730  0.67593621  1  0  -0.349145  0  3.336499  0  0  -0.264132  0  3.615176  0  0  -0.284885  0  3.631339  0  0  -0.337813  -0.250236  0  3.602438  0
N  N89  1  0.59250444  0.82641920  0.32405869  1  0  -0.349134  0  3.33661  0  0  -0.264052  0  3.615201  0  0  -0.284802  0  3.631359  0  0  -0.337853  -0.250166  0  3.602477  0
O  O90  1  0.71688624  0.34507297  0.67707374  1  0  -0.674384  0  2.052048  0  0  -0.600587  0  2.336869  0  0  -0.629831  0  2.321803  0  0  -0.346808  -0.579345  0  2.346555  0
O  O91  1  0.28310712  0.65493046  0.32293192  1  0  -0.674472  0  2.052039  0  0  -0.600649  0  2.336881  0  0  -0.629884  0  2.321762  0  0  -0.346804  -0.579382  0  2.346509  0
O  O92  1  0.89968736  0.39786135  0.78404760  1  0  -0.622287  0  1.906274  0  0  -0.580684  0  2.130418  0  0  -0.602246  0  2.122845  0  0  -0.329996  -0.56524  0  2.135239  0
O  O93  1  0.10032264  0.60214440  0.21595850  1  0  -0.622232  0  1.906649  0  0  -0.58065  0  2.130875  0  0  -0.602188  0  2.123233  0  0  -0.329962  -0.565176  0  2.13563  0
O  O94  1  0.75134418  0.00643739  0.80917567  1  0  -0.671183  0  1.984582  0  0  -0.598879  0  2.248673  0  0  -0.626664  0  2.231086  0  0  -0.354425  -0.578898  0  2.260508  0
O  O95  1  0.24864146  0.99354885  0.19083194  1  0  -0.671174  0  1.984758  0  0  -0.598876  0  2.248834  0  0  -0.626665  0  2.231253  0  0  -0.3545  -0.578894  0  2.260676  0
O  O96  1  0.76406093  0.93667338  0.67071070  1  0  -0.622355  0  1.939637  0  0  -0.572701  0  2.171757  0  0  -0.595789  0  2.164158  0  0  -0.315149  -0.556549  0  2.17676  0
O  O97  1  0.23595814  0.06334039  0.32929245  1  0  -0.622465  0  1.939691  0  0  -0.572844  0  2.171827  0  0  -0.59593  0  2.164222  0  0  -0.315139  -0.556695  0  2.176847  0
