# generated using pymatgen
data_SnH17C13S2NO2
_symmetry_space_group_name_H-M   'P 1'
_cell_length_a   9.80097307
_cell_length_b   10.52491360
_cell_length_c   21.04500000
_cell_angle_alpha   90.00000000
_cell_angle_beta   90.00000000
_cell_angle_gamma   101.40799144
_symmetry_Int_Tables_number   1
_chemical_formula_structural   SnH17C13S2NO2
_chemical_formula_sum   'Sn4 H68 C52 S8 N4 O8'
_cell_volume   2127.99537355
_cell_formula_units_Z   4
loop_
 _symmetry_equiv_pos_site_id
 _symmetry_equiv_pos_as_xyz
  1  'x, y, z'
loop_
 _atom_site_type_symbol
 _atom_site_label
 _atom_site_symmetry_multiplicity
 _atom_site_fract_x
 _atom_site_fract_y
 _atom_site_fract_z
 _atom_site_occupancy
 _atom_site_hle17_bader_spin_density
 _atom_site_hle17_ddec_charge
 _atom_site_hle17_ddec_spin_density
 _atom_site_hle17_ddec_sum_bond_order
 _atom_site_hle17_magmom
 _atom_site_hse06_10hf_bader_spin_density
 _atom_site_hse06_10hf_ddec_charge
 _atom_site_hse06_10hf_ddec_spin_density
 _atom_site_hse06_10hf_ddec_sum_bond_order
 _atom_site_hse06_10hf_magmom
 _atom_site_hse06_bader_spin_density
 _atom_site_hse06_ddec_charge
 _atom_site_hse06_ddec_spin_density
 _atom_site_hse06_ddec_sum_bond_order
 _atom_site_hse06_magmom
 _atom_site_pbe_bader_charge
 _atom_site_pbe_bader_spin_density
 _atom_site_pbe_cm5_charge
 _atom_site_pbe_ddec_charge
 _atom_site_pbe_ddec_spin_density
 _atom_site_pbe_ddec_sum_bond_order
 _atom_site_pbe_magmom
Sn  Sn0  1  0.69265941  0.22233834  0.73678974  1  0  1.214972  0  2.985074  0  0  1.078863  0  3.486201  0  0  1.118214  0  3.474907  0  1.653942  0  0.488975  1.052375  0  3.492987  0
Sn  Sn1  1  0.30734158  0.27766170  0.23678926  1  0  1.214888  0  2.985035  0  0  1.078793  0  3.486167  0  0  1.118125  0  3.474882  0  1.653791  0  0.488942  1.052304  0  3.492953  0
Sn  Sn2  1  0.30733696  0.77765787  0.26321169  1  0  1.214864  0  2.985158  0  0  1.078769  0  3.486289  0  0  1.118109  0  3.474991  0  1.653874  0  0.48893  1.05228  0  3.493074  0
Sn  Sn3  1  0.69266113  0.72234032  0.76321264  1  0  1.214941  0  2.985021  0  0  1.078825  0  3.486212  0  0  1.118193  0  3.474886  0  1.653807  0  0.488942  1.052337  0  3.492997  0
H  H4  1  0.07752736  0.06508591  0.64163459  1  0  0.077104  0  0.929136  0  0  0.093338  0  0.992793  0  0  0.094101  0  0.992565  0  0.082956  0  0.113587  0.092883  0  0.992464  0
H  H5  1  0.92247260  0.43490928  0.14163554  1  0  0.077081  0  0.929216  0  0  0.093363  0  0.992818  0  0  0.093859  0  0.99346  0  0.08301  0  0.11359  0.092908  0  0.992491  0
H  H6  1  0.92246861  0.93491320  0.35836493  1  0  0.077071  0  0.92914  0  0  0.093306  0  0.992819  0  0  0.093801  0  0.993464  0  0.08297  0  0.113566  0.092853  0  0.992488  0
H  H7  1  0.07752765  0.56508595  0.85836446  1  0  0.077085  0  0.929167  0  0  0.093321  0  0.992822  0  0  0.094084  0  0.992593  0  0.082967  0  0.113564  0.092866  0  0.992493  0
H  H8  1  0.18538662  0.21020106  0.67095985  1  0  0.076802  0  0.933062  0  0  0.091376  0  0.99651  0  0  0.093243  0  0.994182  0  0.060239  0  0.103504  0.09013  0  0.99773  0
H  H9  1  0.81461396  0.28979704  0.17096175  1  0  0.076776  0  0.933163  0  0  0.091406  0  0.996552  0  0  0.092971  0  0.995091  0  0.060192  0  0.103495  0.090157  0  0.997775  0
H  H10  1  0.81460976  0.78979999  0.32903968  1  0  0.076754  0  0.93307  0  0  0.091365  0  0.996502  0  0  0.092947  0  0.995022  0  0.060224  0  0.103488  0.090115  0  0.997727  0
H  H11  1  0.18538670  0.71020014  0.82904015  1  0  0.076774  0  0.933114  0  0  0.091361  0  0.996547  0  0  0.093217  0  0.994231  0  0.060228  0  0.103492  0.090111  0  0.997772  0
H  H12  1  0.04363986  0.97743631  0.75174958  1  0  0.127772  0  0.946734  0  0  0.140014  0  1.006817  0  0  0.143167  0  1.005058  0  0.086566  0  0.10485  0.13772  0  1.008241  0
H  H13  1  0.95636048  0.52256769  0.25174958  1  0  0.127782  0  0.946703  0  0  0.140009  0  1.006804  0  0  0.143117  0  1.005156  0  0.086546  0  0.104847  0.137714  0  1.008228  0
H  H14  1  0.95635918  0.02256765  0.24825089  1  0  0.12778  0  0.946721  0  0  0.140012  0  1.006807  0  0  0.14312  0  1.005159  0  0.086556  0  0.104849  0.137717  0  1.008232  0
H  H15  1  0.04364141  0.47743530  0.74824994  1  0  0.127752  0  0.94675  0  0  0.139987  0  1.00684  0  0  0.143143  0  1.005075  0  0.086571  0  0.104837  0.137692  0  1.008265  0
H  H16  1  0.15686572  0.12089101  0.78180328  1  0  0.110094  0  0.928733  0  0  0.122474  0  0.98894  0  0  0.124692  0  0.988183  0  0.047166  0  0.098522  0.120996  0  0.98935  0
H  H17  1  0.84313344  0.37911000  0.28180518  1  0  0.110061  0  0.928725  0  0  0.122452  0  0.988914  0  0  0.124623  0  0.988268  0  0.047149  0  0.098533  0.120974  0  0.989322  0
H  H18  1  0.84313352  0.87910907  0.21819625  1  0  0.110056  0  0.928745  0  0  0.122445  0  0.988942  0  0  0.124616  0  0.988294  0  0.047163  0  0.098521  0.120967  0  0.989351  0
H  H19  1  0.15686723  0.62089202  0.71819625  1  0  0.110051  0  0.928742  0  0  0.122423  0  0.988956  0  0  0.124639  0  0.988201  0  0.047131  0  0.098512  0.120944  0  0.989365  0
H  H20  1  0.15183124  0.85586681  0.67042861  1  0  0.100424  0  0.953381  0  0  0.111972  0  1.019926  0  0  0.114681  0  1.016724  0  0.118692  0  0.111348  0.110085  0  1.021743  0
H  H21  1  0.84817052  0.64412944  0.17042766  1  0  0.100416  0  0.953372  0  0  0.11193  0  1.019915  0  0  0.114393  0  1.017583  0  0.118792  0  0.111343  0.110042  0  1.021732  0
H  H22  1  0.84816739  0.14413521  0.32956807  1  0  0.100428  0  0.953389  0  0  0.111948  0  1.019938  0  0  0.114397  0  1.017631  0  0.118573  0  0.111362  0.110062  0  1.021756  0
H  H23  1  0.15182790  0.35586677  0.82957187  1  0  0.100434  0  0.953349  0  0  0.11198  0  1.019861  0  0  0.114673  0  1.016687  0  0.118586  0  0.111338  0.11009  0  1.021677  0
H  H24  1  0.33241139  0.86812136  0.65661725  1  0  0.086332  0  0.958711  0  0  0.100951  0  1.023969  0  0  0.102423  0  1.022002  0  0.080047  0  0.100145  0.100133  0  1.024778  0
H  H25  1  0.66758854  0.63187585  0.15661582  1  0  0.08629  0  0.958741  0  0  0.100885  0  1.024002  0  0  0.102103  0  1.022825  0  0.080107  0  0.100112  0.100071  0  1.024813  0
H  H26  1  0.66758377  0.13187872  0.34337847  1  0  0.086354  0  0.958606  0  0  0.100931  0  1.023902  0  0  0.102154  0  1.022724  0  0.079984  0  0.100116  0.100113  0  1.024711  0
H  H27  1  0.33241212  0.36812132  0.84338180  1  0  0.086343  0  0.958721  0  0  0.100897  0  1.024017  0  0  0.102375  0  1.022049  0  0.08005  0  0.100121  0.10008  0  1.024827  0
H  H28  1  0.41256404  0.05111961  0.55665289  1  0  0.08855  0  0.964167  0  0  0.098188  0  1.028482  0  0  0.1007  0  1.027953  0  0.049488  0  0.094715  0.09642  0  1.028838  0
H  H29  1  0.58743532  0.44888236  0.05664813  1  0  0.088535  0  0.964216  0  0  0.098205  0  1.028486  0  0  0.100653  0  1.028081  0  0.049568  0  0.094725  0.096434  0  1.028845  0
H  H30  1  0.58743153  0.94888241  0.44334616  1  0  0.088469  0  0.964186  0  0  0.098158  0  1.028456  0  0  0.100586  0  1.028067  0  0.049445  0  0.09471  0.096388  0  1.028814  0
H  H31  1  0.41256412  0.55111869  0.94334996  1  0  0.088507  0  0.964273  0  0  0.098179  0  1.028544  0  0  0.100678  0  1.028034  0  0.049511  0  0.094728  0.096411  0  1.028901  0
H  H32  1  0.37226634  0.05892229  0.44036018  1  0  0.080439  0  0.973562  0  0  0.08973  0  1.037015  0  0  0.0922  0  1.036408  0  0.087293  0  0.091968  0.087924  0  1.037563  0
H  H33  1  0.62773957  0.44108648  0.94035495  1  0  0.080419  0  0.973527  0  0  0.089686  0  1.037006  0  0  0.092155  0  1.0364  0  0.087321  0  0.091988  0.087879  0  1.037552  0
H  H34  1  0.62773208  0.94107876  0.55963792  1  0  0.080421  0  0.973486  0  0  0.0897  0  1.036955  0  0  0.092168  0  1.036349  0  0.087523  0  0.091973  0.087893  0  1.037501  0
H  H35  1  0.37226682  0.55891845  0.05964077  1  0  0.080418  0  0.973508  0  0  0.089693  0  1.036979  0  0  0.092162  0  1.036374  0  0.087317  0  0.091974  0.087885  0  1.037523  0
H  H36  1  0.15568441  0.93288547  0.39280447  1  0  0.085837  0  0.978293  0  0  0.094135  0  1.045965  0  0  0.097287  0  1.044445  0  0.065671  0  0.09383  0.091809  0  1.047213  0
H  H37  1  0.84432268  0.56712628  0.89280257  1  0  0.085748  0  0.978383  0  0  0.094056  0  1.046058  0  0  0.097207  0  1.044562  0  0.065568  0  0.093816  0.09173  0  1.047304  0
H  H38  1  0.84431523  0.06711170  0.60719316  1  0  0.085837  0  0.978257  0  0  0.094081  0  1.046004  0  0  0.097227  0  1.044512  0  0.065751  0  0.093843  0.091756  0  1.04725  0
H  H39  1  0.15568698  0.43288446  0.10719791  1  0  0.085843  0  0.978268  0  0  0.094097  0  1.045995  0  0  0.097244  0  1.044477  0  0.065634  0  0.093834  0.091772  0  1.04724  0
H  H40  1  0.97573401  0.79995218  0.46274697  1  0  0.082001  0  0.945415  0  0  0.095839  0  0.998322  0  0  0.098611  0  0.99749  0  0.049648  0  0.098716  0.093871  0  0.998974  0
H  H41  1  0.02427429  0.70005085  0.96274792  1  0  0.081945  0  0.945421  0  0  0.095776  0  0.998338  0  0  0.098547  0  0.99752  0  0.04952  0  0.09866  0.093807  0  0.998991  0
H  H42  1  0.02426706  0.20004693  0.53725065  1  0  0.081984  0  0.945432  0  0  0.095813  0  0.998352  0  0  0.098585  0  0.997535  0  0.049645  0  0.098712  0.093844  0  0.999005  0
H  H43  1  0.97573210  0.29995408  0.03725398  1  0  0.081994  0  0.945369  0  0  0.095827  0  0.998287  0  0  0.098598  0  0.997457  0  0.049648  0  0.098719  0.093856  0  0.998943  0
H  H44  1  0.01678758  0.79155631  0.57927346  1  0  0.094782  0  0.947183  0  0  0.107517  0  1.003153  0  0  0.11045  0  1.002248  0  0.04706  0  0.100781  0.105401  0  1.00395  0
H  H45  1  0.98321623  0.70843993  0.07927489  1  0  0.0948  0  0.947156  0  0  0.10755  0  1.003112  0  0  0.110483  0  1.002144  0  0.047178  0  0.100787  0.105434  0  1.00391  0
H  H46  1  0.98320719  0.20845152  0.42072559  1  0  0.094834  0  0.947157  0  0  0.107551  0  1.003147  0  0  0.110486  0  1.002176  0  0.047088  0  0.100761  0.105434  0  1.003946  0
H  H47  1  0.01678892  0.29155434  0.92072701  1  0  0.094844  0  0.947184  0  0  0.107589  0  1.003139  0  0  0.110523  0  1.002234  0  0.047091  0  0.100801  0.105472  0  1.003937  0
H  H48  1  0.75613508  0.32202934  0.85284153  1  0  0.168199  0  0.974376  0  0  0.185084  0  1.032313  0  0  0.188302  0  1.032294  0  0.092911  0  0.092248  0.182759  0  1.032533  0
H  H49  1  0.24386000  0.17797167  0.35284201  1  0  0.168272  0  0.974423  0  0  0.185167  0  1.032337  0  0  0.188384  0  1.032309  0  0.092875  0  0.092292  0.182842  0  1.032557  0
H  H50  1  0.24386130  0.67797171  0.14715799  1  0  0.168285  0  0.974341  0  0  0.185159  0  1.032285  0  0  0.188377  0  1.032257  0  0.092883  0  0.092302  0.182834  0  1.032505  0
H  H51  1  0.75613782  0.82203132  0.64715895  1  0  0.168221  0  0.974407  0  0  0.18511  0  1.032333  0  0  0.188327  0  1.032316  0  0.092878  0  0.092278  0.182783  0  1.03256  0
H  H52  1  0.72914708  0.14888370  0.85755144  1  0  0.159943  0  0.980247  0  0  0.18025  0  1.031545  0  0  0.183274  0  1.031863  0  0.069856  0  0.090464  0.177905  0  1.031744  0
H  H53  1  0.27084799  0.35111731  0.35755049  1  0  0.159913  0  0.980254  0  0  0.180244  0  1.03153  0  0  0.183268  0  1.031846  0  0.069872  0  0.090462  0.177899  0  1.03173  0
H  H54  1  0.27084828  0.85111735  0.14245094  1  0  0.15993  0  0.980238  0  0  0.180244  0  1.031531  0  0  0.183267  0  1.031846  0  0.069735  0  0.090474  0.177899  0  1.03173  0
H  H55  1  0.72914962  0.64888471  0.64245046  1  0  0.159961  0  0.980243  0  0  0.180273  0  1.031534  0  0  0.183297  0  1.031853  0  0.069747  0  0.090483  0.177928  0  1.031733  0
H  H56  1  0.58130083  0.22710233  0.85459682  1  0  0.157772  0  0.980424  0  0  0.175305  0  1.035014  0  0  0.178284  0  1.035425  0  0.056896  0  0.085651  0.173062  0  1.035027  0
H  H57  1  0.41869527  0.27289868  0.35459777  1  0  0.157762  0  0.980545  0  0  0.175348  0  1.035068  0  0  0.178329  0  1.035457  0  0.056408  0  0.085648  0.173102  0  1.035085  0
H  H58  1  0.41869474  0.77289969  0.14540413  1  0  0.157744  0  0.980512  0  0  0.175319  0  1.035054  0  0  0.1783  0  1.035443  0  0.056444  0  0.085651  0.173074  0  1.035069  0
H  H59  1  0.58130234  0.72710334  0.64540461  1  0  0.157743  0  0.980486  0  0  0.175324  0  1.035027  0  0  0.178304  0  1.035436  0  0.056891  0  0.085638  0.173078  0  1.035043  0
H  H60  1  0.75479195  0.45061543  0.67619244  1  0  0.15514  0  1.007609  0  0  0.170325  0  1.069615  0  0  0.173071  0  1.070538  0  0.0563  0  0.086099  0.168224  0  1.069334  0
H  H61  1  0.24520802  0.04938461  0.17619197  1  0  0.155105  0  1.00762  0  0  0.170284  0  1.069637  0  0  0.17303  0  1.070548  0  0.056305  0  0.086085  0.168183  0  1.069355  0
H  H62  1  0.24520891  0.54938271  0.32381088  1  0  0.155125  0  1.007653  0  0  0.170309  0  1.069656  0  0  0.173055  0  1.070568  0  0.056288  0  0.086075  0.168208  0  1.069374  0
H  H63  1  0.75479101  0.95061450  0.82381136  1  0  0.155138  0  1.007658  0  0  0.170327  0  1.069657  0  0  0.173071  0  1.070581  0  0.056346  0  0.086078  0.168226  0  1.069375  0
H  H64  1  0.70424379  0.32196925  0.61927726  1  0  0.15999  0  0.974875  0  0  0.178715  0  1.027006  0  0  0.181551  0  1.027822  0  0.05844  0  0.090034  0.176731  0  1.026515  0
H  H65  1  0.29575516  0.17803079  0.11927726  1  0  0.159994  0  0.974932  0  0  0.178741  0  1.027036  0  0  0.181578  0  1.027841  0  0.058437  0  0.090049  0.176755  0  1.026549  0
H  H66  1  0.29575851  0.67803084  0.38072416  1  0  0.160065  0  0.974891  0  0  0.178805  0  1.026992  0  0  0.181642  0  1.027797  0  0.058381  0  0.09008  0.176817  0  1.026507  0
H  H67  1  0.70424265  0.82196735  0.88072464  1  0  0.160103  0  0.974879  0  0  0.178839  0  1.026977  0  0  0.181675  0  1.027794  0  0.058379  0  0.090119  0.176855  0  1.026487  0
H  H68  1  0.87725802  0.35276896  0.65262010  1  0  0.163134  0  0.969751  0  0  0.181861  0  1.021604  0  0  0.184836  0  1.022079  0  0.04289  0  0.090828  0.179749  0  1.021354  0
H  H69  1  0.12274236  0.14723302  0.15262057  1  0  0.163126  0  0.969764  0  0  0.18185  0  1.021626  0  0  0.184825  0  1.022092  0  0.042876  0  0.090832  0.17974  0  1.021373  0
H  H70  1  0.12274244  0.64722725  0.34738370  1  0  0.163159  0  0.969734  0  0  0.181888  0  1.021583  0  0  0.184863  0  1.022048  0  0.042611  0  0.090837  0.179777  0  1.021332  0
H  H71  1  0.87725728  0.85276900  0.84738323  1  0  0.163151  0  0.969736  0  0  0.181901  0  1.021563  0  0  0.184875  0  1.022038  0  0.0426  0  0.090826  0.179788  0  1.021316  0
C  C72  1  0.39696794  0.10419620  0.69409313  1  0  0.230199  0  3.796776  0  0  0.192562  0  4.102358  0  0  0.223136  0  4.114771  0  0.309224  0  0.135565  0.177113  0  4.095286  0
C  C73  1  0.60303061  0.39580190  0.19409218  1  0  0.230248  0  3.796741  0  0  0.192613  0  4.102334  0  0  0.215836  0  4.111903  0  0.309318  0  0.135581  0.177164  0  4.095263  0
C  C74  1  0.60302946  0.89580001  0.30590592  1  0  0.230112  0  3.796875  0  0  0.192473  0  4.102466  0  0  0.215695  0  4.112037  0  0.309445  0  0.135465  0.177025  0  4.095393  0
C  C75  1  0.39696965  0.60419818  0.80590782  1  0  0.230204  0  3.796806  0  0  0.192531  0  4.102422  0  0  0.22311  0  4.114835  0  0.309276  0  0.135541  0.177083  0  4.09535  0
C  C76  1  0.15041842  0.10587498  0.67940699  1  0  0.02915  0  3.603583  0  0  -0.041247  0  3.8595  0  0  -0.030051  0  3.873262  0  0.301429  0  -0.054494  -0.044339  0  3.852444  0
C  C77  1  0.84958460  0.39412021  0.17940794  1  0  0.029203  0  3.603765  0  0  -0.041283  0  3.859707  0  0  -0.036449  0  3.869978  0  0.301745  0  -0.054485  -0.044374  0  3.852649  0
C  C78  1  0.84958041  0.89412316  0.32059301  1  0  0.029345  0  3.603418  0  0  -0.041129  0  3.859431  0  0  -0.036306  0  3.869691  0  0.301803  0  -0.054441  -0.044221  0  3.852375  0
C  C79  1  0.15041891  0.60587599  0.82059301  1  0  0.029217  0  3.603648  0  0  -0.0412  0  3.859545  0  0  -0.029991  0  3.87331  0  0.301827  0  -0.054458  -0.044291  0  3.852487  0
C  C80  1  0.08060083  0.08201529  0.74498456  1  0  -0.289039  0  3.642369  0  0  -0.329233  0  3.894775  0  0  -0.335134  0  3.899254  0  -0.027481  0  -0.164576  -0.324783  0  3.890321  0
C  C81  1  0.91939914  0.41798475  0.24498408  1  0  -0.289086  0  3.642421  0  0  -0.329275  0  3.894844  0  0  -0.335783  0  3.901216  0  -0.027466  0  -0.164639  -0.324824  0  3.890388  0
C  C82  1  0.91939943  0.91798479  0.25501639  1  0  -0.289112  0  3.642391  0  0  -0.329273  0  3.894774  0  0  -0.335776  0  3.901143  0  -0.027422  0  -0.164612  -0.324822  0  3.89032  0
C  C83  1  0.08060132  0.58201630  0.75501497  1  0  -0.288993  0  3.642305  0  0  -0.329163  0  3.894691  0  0  -0.335062  0  3.899166  0  -0.027439  0  -0.16457  -0.324712  0  3.890236  0
C  C84  1  0.95941671  0.15130301  0.74856450  1  0  0.68688  0  3.831761  0  0  0.645296  0  4.123569  0  0  0.677923  0  4.11735  0  1.54266  0  0.217677  0.623194  0  4.127021  0
C  C85  1  0.04058183  0.34869509  0.24856450  1  0  0.686938  0  3.831916  0  0  0.645374  0  4.123672  0  0  0.678  0  4.117304  0  1.542363  0  0.217735  0.623272  0  4.127123  0
C  C86  1  0.04058272  0.84869319  0.25143597  1  0  0.686871  0  3.831897  0  0  0.645314  0  4.12365  0  0  0.677935  0  4.117287  0  1.542449  0  0.217703  0.623213  0  4.127101  0
C  C87  1  0.95941967  0.65131080  0.75143359  1  0  0.68682  0  3.831913  0  0  0.645246  0  4.12371  0  0  0.67787  0  4.117497  0  1.542639  0  0.217649  0.623146  0  4.127161  0
C  C88  1  0.24296889  0.91322080  0.64607983  1  0  -0.059614  0  3.642436  0  0  -0.132952  0  3.887266  0  0  -0.122498  0  3.90043  0  0.268281  0  -0.059845  -0.135485  0  3.880946  0
C  C89  1  0.75703206  0.58677641  0.14607745  1  0  -0.059553  0  3.642417  0  0  -0.13279  0  3.887201  0  0  -0.12879  0  3.89673  0  0.268274  0  -0.059788  -0.135331  0  3.88089  0
C  C90  1  0.75702852  0.08678025  0.35391732  1  0  -0.059588  0  3.64233  0  0  -0.132813  0  3.887116  0  0  -0.128828  0  3.896693  0  0.268667  0  -0.059831  -0.135354  0  3.880806  0
C  C91  1  0.24297044  0.41322464  0.85392065  1  0  -0.059649  0  3.64252  0  0  -0.132894  0  3.887274  0  0  -0.122449  0  3.90049  0  0.268643  0  -0.059816  -0.135422  0  3.880946  0
C  C92  1  0.21793103  0.91902580  0.57539748  1  0  0.061844  0  3.769241  0  0  0.082774  0  4.009308  0  0  0.081895  0  4.03347  0  -0.096246  0  -0.018381  0.083797  0  3.991563  0
C  C93  1  0.78207155  0.58096948  0.07539558  1  0  0.06197  0  3.769066  0  0  0.082861  0  4.009157  0  0  0.081419  0  4.035217  0  -0.096263  0  -0.018374  0.083884  0  3.991411  0
C  C94  1  0.78206678  0.08097235  0.42459967  1  0  0.061766  0  3.769171  0  0  0.0826  0  4.009333  0  0  0.081161  0  4.035399  0  -0.09658  0  -0.018418  0.083627  0  3.991587  0
C  C95  1  0.21793544  0.41902866  0.92460394  1  0  0.061943  0  3.769059  0  0  0.082864  0  4.009105  0  0  0.081993  0  4.033272  0  -0.096174  0  -0.018348  0.083884  0  3.991359  0
C  C96  1  0.31698160  0.99545708  0.53599952  1  0  -0.119315  0  3.747097  0  0  -0.138675  0  3.988616  0  0  -0.141617  0  4.010992  0  0.014028  0  -0.097956  -0.136472  0  3.973035  0
C  C97  1  0.68302098  0.50454304  0.03599430  1  0  -0.1194  0  3.747168  0  0  -0.138782  0  3.988697  0  0  -0.141888  0  4.011527  0  0.01371  0  -0.097956  -0.136576  0  3.973117  0
C  C98  1  0.68301580  0.00454397  0.46399905  1  0  -0.119295  0  3.746923  0  0  -0.138676  0  3.98846  0  0  -0.141759  0  4.011293  0  0.014077  0  -0.097991  -0.136471  0  3.97288  0
C  C99  1  0.31698377  0.49545898  0.96400380  1  0  -0.11938  0  3.747201  0  0  -0.138776  0  3.988731  0  0  -0.14171  0  4.011121  0  0.013693  0  -0.098014  -0.136572  0  3.973151  0
C  C100  1  0.29421727  0.00030048  0.47076835  1  0  -0.075341  0  3.805926  0  0  -0.084524  0  4.050212  0  0  -0.086865  0  4.073509  0  -0.107237  0  -0.09728  -0.082778  0  4.034241  0
C  C101  1  0.70579129  0.49970635  0.97076455  1  0  -0.075262  0  3.806056  0  0  -0.084426  0  4.050346  0  0  -0.086767  0  4.073594  0  -0.10746  0  -0.097339  -0.082677  0  4.034371  0
C  C102  1  0.70578892  0.99970348  0.52923260  1  0  -0.075287  0  3.805782  0  0  -0.084457  0  4.050062  0  0  -0.086795  0  4.073301  0  -0.107355  0  -0.097258  -0.082709  0  4.034088  0
C  C103  1  0.29421326  0.50029470  0.02923402  1  0  -0.075248  0  3.805976  0  0  -0.084417  0  4.050248  0  0  -0.086755  0  4.07354  0  -0.107407  0  -0.097293  -0.082666  0  4.034271  0
C  C104  1  0.17204204  0.92911014  0.44400903  1  0  -0.082324  0  3.784003  0  0  -0.098415  0  4.036404  0  0  -0.101323  0  4.059592  0  -0.059688  0  -0.097097  -0.096334  0  4.02061  0
C  C105  1  0.82796177  0.57089095  0.94400665  1  0  -0.082257  0  3.784031  0  0  -0.098355  0  4.036393  0  0  -0.101264  0  4.059565  0  -0.07548  0  -0.09711  -0.096274  0  4.020598  0
C  C106  1  0.82796332  0.07088994  0.55598812  1  0  -0.082329  0  3.7843  0  0  -0.098381  0  4.036669  0  0  -0.101286  0  4.05984  0  -0.059924  0  -0.097161  -0.096299  0  4.020871  0
C  C107  1  0.17203624  0.42910817  0.05599097  1  0  -0.082408  0  3.784141  0  0  -0.098449  0  4.036507  0  0  -0.101352  0  4.05969  0  -0.075531  0  -0.09713  -0.096367  0  4.020709  0
C  C108  1  0.07244448  0.85393213  0.48303255  1  0  -0.067552  0  3.804814  0  0  -0.07991  0  4.053251  0  0  -0.08198  0  4.076393  0  -0.067032  0  -0.095048  -0.078427  0  4.037504  0
C  C109  1  0.92756117  0.64606799  0.98303160  1  0  -0.067451  0  3.804676  0  0  -0.079808  0  4.05311  0  0  -0.081877  0  4.076202  0  -0.050779  0  -0.094943  -0.078326  0  4.037364  0
C  C110  1  0.92755435  0.14606601  0.51696555  1  0  -0.067547  0  3.804835  0  0  -0.079906  0  4.053249  0  0  -0.081974  0  4.07634  0  -0.066813  0  -0.095051  -0.078422  0  4.037501  0
C  C111  1  0.07244807  0.35393112  0.01696793  1  0  -0.067385  0  3.804869  0  0  -0.079744  0  4.053289  0  0  -0.081812  0  4.07643  0  -0.050822  0  -0.094966  -0.07826  0  4.03754  0
C  C112  1  0.09515196  0.84910708  0.54850083  1  0  -0.127637  0  3.764151  0  0  -0.145981  0  4.006745  0  0  -0.149347  0  4.029678  0  0.023563  0  -0.094712  -0.143614  0  3.991195  0
C  C113  1  0.90485287  0.65088917  0.04850083  1  0  -0.127751  0  3.764031  0  0  -0.146104  0  4.006641  0  0  -0.149478  0  4.029483  0  0.023566  0  -0.09473  -0.143736  0  3.991089  0
C  C114  1  0.90484382  0.15089591  0.45149537  1  0  -0.127628  0  3.763862  0  0  -0.145922  0  4.006433  0  0  -0.149295  0  4.029276  0  0.023743  0  -0.094622  -0.143555  0  3.990883  0
C  C115  1  0.09515229  0.34910994  0.95150012  1  0  -0.127842  0  3.764164  0  0  -0.146207  0  4.006775  0  0  -0.149571  0  4.029707  0  0.023615  0  -0.094772  -0.143839  0  3.991224  0
C  C116  1  0.68828976  0.23089026  0.83868330  1  0  -0.661578  0  3.511821  0  0  -0.706162  0  3.739506  0  0  -0.719736  0  3.746943  0  -0.477528  0  -0.319603  -0.696837  0  3.73486  0
C  C117  1  0.31170614  0.26910978  0.33868425  1  0  -0.661589  0  3.511968  0  0  -0.706269  0  3.739564  0  0  -0.719843  0  3.746958  0  -0.477011  0  -0.319622  -0.696941  0  3.734918  0
C  C118  1  0.31170540  0.76910982  0.16131765  1  0  -0.661619  0  3.5119  0  0  -0.706249  0  3.739539  0  0  -0.719823  0  3.746932  0  -0.476886  0  -0.319674  -0.696928  0  3.734909  0
C  C119  1  0.68829229  0.73089127  0.66131765  1  0  -0.661595  0  3.511905  0  0  -0.706232  0  3.739521  0  0  -0.71981  0  3.746957  0  -0.477324  0  -0.319639  -0.696908  0  3.73488  0
C  C120  1  0.76745688  0.35407651  0.66134664  1  0  -0.665454  0  3.523968  0  0  -0.708777  0  3.754098  0  0  -0.722663  0  3.762459  0  -0.409684  0  -0.3221  -0.699226  0  3.748579  0
C  C121  1  0.23254309  0.14592353  0.16134616  1  0  -0.665397  0  3.524026  0  0  -0.708732  0  3.754124  0  0  -0.722616  0  3.762442  0  -0.409555  0  -0.322094  -0.699182  0  3.748607  0
C  C122  1  0.23254398  0.64592163  0.33865574  1  0  -0.665493  0  3.52408  0  0  -0.70882  0  3.754129  0  0  -0.722706  0  3.762447  0  -0.409236  0  -0.322078  -0.699268  0  3.748616  0
C  C123  1  0.76745574  0.85407461  0.83865621  1  0  -0.665584  0  3.524104  0  0  -0.708927  0  3.754134  0  0  -0.722814  0  3.762494  0  -0.40929  0  -0.32214  -0.699375  0  3.748615  0
S  S124  1  0.53733428  0.02617433  0.68891803  1  0  -0.304928  0  2.136348  0  0  -0.273806  0  2.47799  0  0  -0.28555  0  2.47041  0  -0.257671  0  -0.079257  -0.265052  0  2.480583  0
S  S125  1  0.46266569  0.47382571  0.18891708  1  0  -0.304909  0  2.136328  0  0  -0.273783  0  2.477966  0  0  -0.286138  0  2.473052  0  -0.257627  0  -0.079254  -0.26503  0  2.48056  0
S  S126  1  0.46266536  0.97382285  0.31108197  1  0  -0.304877  0  2.136372  0  0  -0.273765  0  2.478062  0  0  -0.28612  0  2.473144  0  -0.2577  0  -0.079219  -0.26501  0  2.480651  0
S  S127  1  0.53733273  0.52617534  0.81108102  1  0  -0.304898  0  2.136408  0  0  -0.273756  0  2.478057  0  0  -0.285502  0  2.470473  0  -0.257623  0  -0.079221  -0.265005  0  2.480652  0
S  S128  1  0.42518051  0.25807554  0.72434878  1  0  -0.407225  0  2.068966  0  0  -0.388283  0  2.387475  0  0  -0.403876  0  2.382007  0  -0.229619  0  -0.145584  -0.377838  0  2.388859  0
S  S129  1  0.57481925  0.24192353  0.22434830  1  0  -0.407246  0  2.068979  0  0  -0.388306  0  2.387501  0  0  -0.404516  0  2.384805  0  -0.22965  0  -0.145609  -0.377859  0  2.388883  0
S  S130  1  0.57482117  0.74192163  0.27565170  1  0  -0.407213  0  2.068905  0  0  -0.388277  0  2.387434  0  0  -0.404491  0  2.384743  0  -0.229719  0  -0.145584  -0.377831  0  2.388818  0
S  S131  1  0.42517917  0.75807752  0.77565407  1  0  -0.407248  0  2.06894  0  0  -0.388301  0  2.387473  0  0  -0.403896  0  2.382001  0  -0.22964  0  -0.145608  -0.377855  0  2.388856  0
N  N132  1  0.27093465  0.04361354  0.67439867  1  0  -0.103106  0  3.413432  0  0  0.016191  0  3.60684  0  0  -0.024955  0  3.663015  0  -1.163428  0  -0.254052  0.02765  0  3.59179  0
N  N133  1  0.72906491  0.45637971  0.17439724  1  0  -0.103131  0  3.413358  0  0  0.016135  0  3.606773  0  0  -0.001041  0  3.629101  0  -1.16389  0  -0.254002  0.027595  0  3.591724  0
N  N134  1  0.72906173  0.95638266  0.32559990  1  0  -0.103084  0  3.413504  0  0  0.016211  0  3.606876  0  0  -0.000956  0  3.629209  0  -1.164254  0  -0.253962  0.027673  0  3.591825  0
N  N135  1  0.27093575  0.54361746  0.82560228  1  0  -0.103123  0  3.413548  0  0  0.016191  0  3.606907  0  0  -0.024959  0  3.663087  0  -1.164199  0  -0.254036  0.027647  0  3.591855  0
O  O136  1  0.84144924  0.08956885  0.72526111  1  0  -0.622969  0  1.991084  0  0  -0.55045  0  2.224605  0  0  -0.577807  0  2.218807  0  -1.181116  0  -0.292412  -0.531399  0  2.228015  0
O  O137  1  0.15855074  0.41043603  0.22526301  1  0  -0.62295  0  1.991019  0  0  -0.550456  0  2.224557  0  0  -0.577812  0  2.218692  0  -1.18082  0  -0.292441  -0.531402  0  2.227959  0
O  O138  1  0.15854878  0.91043510  0.27473937  1  0  -0.622898  0  1.990945  0  0  -0.550436  0  2.224509  0  0  -0.577795  0  2.218649  0  -1.180894  0  -0.29243  -0.531379  0  2.227906  0
O  O139  1  0.84145197  0.58956599  0.77473699  1  0  -0.622891  0  1.990899  0  0  -0.550432  0  2.224487  0  0  -0.577795  0  2.218693  0  -1.180999  0  -0.292412  -0.531376  0  2.227886  0
O  O140  1  0.97314628  0.26339687  0.77106106  1  0  -0.611299  0  1.931062  0  0  -0.554348  0  2.142882  0  0  -0.578635  0  2.136398  0  -1.188497  0  -0.297102  -0.537348  0  2.146875  0
O  O141  1  0.02685186  0.23660414  0.27105916  1  0  -0.61129  0  1.931243  0  0  -0.55435  0  2.143058  0  0  -0.578637  0  2.136526  0  -1.188505  0  -0.297114  -0.537352  0  2.147052  0
O  O142  1  0.02685275  0.73660224  0.22894179  1  0  -0.61127  0  1.931244  0  0  -0.554309  0  2.143026  0  0  -0.5786  0  2.136499  0  -1.188551  0  -0.297097  -0.537309  0  2.147017  0
O  O143  1  0.97314453  0.76339691  0.72894132  1  0  -0.611236  0  1.931368  0  0  -0.554277  0  2.143183  0  0  -0.578566  0  2.136709  0  -1.188626  0  -0.297065  -0.53728  0  2.147176  0
