# generated using pymatgen
data_ZnH11C17NO5
_symmetry_space_group_name_H-M   'P 1'
_cell_length_a   9.56319258
_cell_length_b   11.06358797
_cell_length_c   14.77906229
_cell_angle_alpha   93.18044550
_cell_angle_beta   101.28850561
_cell_angle_gamma   88.04832890
_symmetry_Int_Tables_number   1
_chemical_formula_structural   ZnH11C17NO5
_chemical_formula_sum   'Zn2 H22 C34 N2 O10'
_cell_volume   1530.62998821
_cell_formula_units_Z   2
loop_
 _symmetry_equiv_pos_site_id
 _symmetry_equiv_pos_as_xyz
  1  'x, y, z'
loop_
 _atom_site_type_symbol
 _atom_site_label
 _atom_site_symmetry_multiplicity
 _atom_site_fract_x
 _atom_site_fract_y
 _atom_site_fract_z
 _atom_site_occupancy
 _atom_site_pbe_bader_charge
 _atom_site_pbe_bader_spin_density
 _atom_site_pbe_cm5_charge
 _atom_site_pbe_ddec_charge
 _atom_site_pbe_ddec_spin_density
 _atom_site_pbe_ddec_sum_bond_order
 _atom_site_pbe_magmom
Zn  Zn0  1  0.13688269  0.49374966  0.48788004  1  1.274574  0  0.663231  0.801931  0  2.448392  0
Zn  Zn1  1  0.86203046  0.50148301  0.51243578  1  1.282048  0  0.665284  0.804314  0  2.467484  0
H  H2  1  0.77175159  0.31997026  0.89293882  1  0.044694  0  0.10367  0.105948  0  0.994593  0
H  H3  1  0.20208979  0.54947306  0.11779215  1  0.051634  0  0.101807  0.104958  0  1.003138  0
H  H4  1  0.91767586  0.55018577  0.81364993  1  0.103982  0  0.104711  0.110317  0  1.000152  0
H  H5  1  0.07374664  0.38673652  0.18932690  1  0.10955  0  0.102413  0.103824  0  1.01758  0
H  H6  1  0.66118823  0.36755652  0.60214797  1  0.149189  0  0.142047  0.121978  0  0.956863  0
H  H7  1  0.33757046  0.62899012  0.39728931  1  0.131028  0  0.14215  0.123365  0  0.952395  0
H  H8  1  0.33305661  0.43709714  0.77122674  1  0.063243  0  0.098465  0.097837  0  1.038791  0
H  H9  1  0.65914049  0.50165125  0.23137249  1  0.057233  0  0.09959  0.102141  0  1.038793  0
H  H10  1  0.97403377  0.32899072  0.02414249  1  0.065422  0  0.103568  0.105643  0  0.999377  0
H  H11  1  0.00708303  0.56525526  0.98434988  1  0.075801  0  0.101952  0.104876  0  1.004772  0
H  H12  1  0.52073439  0.36375341  0.82697268  1  0.032213  0  0.099356  0.098168  0  1.015885  0
H  H13  1  0.45390328  0.50969357  0.18329580  1  0.071135  0  0.097839  0.096519  0  1.023038  0
H  H14  1  0.63608124  0.85641274  0.62803523  1  0.02144  0  0.106191  0.112171  0  0.971673  0
H  H15  1  0.66520273  0.83112184  0.51202830  1  0.06084  0  0.086428  0.078212  0  1.034629  0
H  H16  1  0.63479147  0.98254128  0.55635259  1  0.025787  0  0.090529  0.083191  0  0.999269  0
H  H17  1  0.18707002  0.18522585  0.27720475  1  0.056131  0  0.105643  0.113805  0  0.972143  0
H  H18  1  0.03206551  0.22358523  0.32369473  1  0.075168  0  0.093203  0.096169  0  1.033245  0
H  H19  1  0.04053520  0.08326145  0.25712678  1  0.046413  0  0.092031  0.086514  0  0.992495  0
H  H20  1  0.85013592  0.13005630  0.58230632  1  0.098615  0  0.107435  0.124599  0  0.997905  0
H  H21  1  0.14763520  0.86444034  0.41284273  1  0.079823  0  0.107162  0.125864  0  0.998544  0
H  H22  1  0.38893406  0.35978148  0.58629114  1  0.155796  0  0.141357  0.123972  0  0.962053  0
H  H23  1  0.60932965  0.63422751  0.41119543  1  0.151954  0  0.140214  0.120584  0  0.9675  0
C  C24  1  0.99675326  0.73435664  0.50460024  1  1.610205  0  0.219872  0.617429  0  4.140664  0
C  C25  1  0.00032647  0.25968259  0.49285645  1  1.61029  0  0.215464  0.605829  0  4.164676  0
C  C26  1  0.56052210  0.38475755  0.90021374  1  0.022925  0  -0.092178  -0.12708  0  4.025016  0
C  C27  1  0.41669687  0.49718626  0.10894423  1  -0.047669  0  -0.093821  -0.129894  0  4.029529  0
C  C28  1  0.70086413  0.35974280  0.93673664  1  -0.007724  0  -0.090861  -0.134325  0  4.021264  0
C  C29  1  0.27574456  0.51952043  0.07276367  1  -0.09058  0  -0.091565  -0.13475  0  4.02074  0
C  C30  1  0.91117655  0.94623634  0.55120169  1  0.501617  0  0.080359  0.223923  0  4.039223  0
C  C31  1  0.08361098  0.04744102  0.44211581  1  0.535648  0  0.082108  0.228666  0  4.04185  0
C  C32  1  0.91373686  0.07112993  0.54368743  1  -0.006691  0  -0.093873  -0.197119  0  3.986969  0
C  C33  1  0.08163960  0.92258908  0.45019309  1  -0.041747  0  -0.09646  -0.200243  0  3.982766  0
C  C34  1  0.99912105  0.12412418  0.49061821  1  -0.016134  0  -0.02098  -0.111591  0  3.956344  0
C  C35  1  0.99632519  0.86975584  0.50345038  1  -0.053808  0  -0.017891  -0.102772  0  3.950196  0
C  C36  1  0.58740639  0.42520294  0.55662811  1  0.474569  0  0.082463  0.064114  0  3.862906  0
C  C37  1  0.41112958  0.57051307  0.44226927  1  0.554254  0  0.081078  0.061728  0  3.867254  0
C  C38  1  0.44004170  0.42084466  0.54804691  1  0.562595  0  0.083386  0.06839  0  3.854978  0
C  C39  1  0.55840487  0.57417064  0.45034970  1  0.483568  0  0.07959  0.058579  0  3.874304  0
C  C40  1  0.92594439  0.48024129  0.31870528  1  1.578237  0  0.210153  0.587956  0  4.175284  0
C  C41  1  0.07220363  0.49345202  0.68130459  1  1.51909  0  0.213588  0.596554  0  4.156935  0
C  C42  1  0.86946189  0.44856067  0.21868037  1  0.019479  0  -0.022007  -0.034816  0  3.991814  0
C  C43  1  0.12281680  0.49248665  0.78374258  1  0.015318  0  -0.020891  -0.03213  0  3.987778  0
C  C44  1  0.90486718  0.36756756  0.06943748  1  -0.06422  0  -0.089837  -0.135115  0  3.997569  0
C  C45  1  0.07806648  0.53533352  0.93762780  1  -0.066119  0  -0.090417  -0.136078  0  4.002719  0
C  C46  1  0.96055535  0.39933691  0.16064540  1  -0.021587  0  -0.09087  -0.105843  0  4.014329  0
C  C47  1  0.02815965  0.52725679  0.84349977  1  -0.050144  0  -0.087056  -0.095693  0  4.000587  0
C  C48  1  0.72478256  0.46449058  0.18370369  1  -0.089248  0  -0.082974  -0.133784  0  3.942437  0
C  C49  1  0.26378560  0.46158081  0.81997428  1  0.004222  0  -0.082135  -0.132921  0  3.945877  0
C  C50  1  0.66500992  0.43570936  0.09031041  1  -0.008949  0  -0.003027  0.032991  0  3.951341  0
C  C51  1  0.31721299  0.46556812  0.91613894  1  -0.069145  0  -0.003758  0.029487  0  3.948982  0
C  C52  1  0.75807144  0.38663984  0.03192195  1  -0.099597  0  -0.007026  0.078819  0  4.01398  0
C  C53  1  0.22229074  0.50647054  0.97583658  1  0.033876  0  -0.006978  0.079632  0  4.013189  0
C  C54  1  0.51516977  0.45622915  0.05199776  1  0.026487  0  -0.00381  0.033043  0  3.960554  0
C  C55  1  0.46441475  0.43540660  0.95572849  1  -0.032829  0  -0.003066  0.034322  0  3.958387  0
C  C56  1  0.68365558  0.89299984  0.57393882  1  0.427836  0  -0.139969  -0.15827  0  3.948094  0
C  C57  1  0.10231425  0.14853285  0.30713971  1  0.372552  0  -0.142479  -0.167114  0  3.929342  0
N  N58  1  0.35374897  0.49375592  0.49110146  1  -1.215417  0  -0.289418  -0.135708  0  3.494072  0
N  N59  1  0.64476627  0.50179802  0.50773594  1  -1.214661  0  -0.291167  -0.136316  0  3.496661  0
O  O60  1  0.11084461  0.67811701  0.49205922  1  -1.170286  0  -0.321523  -0.555035  0  2.314813  0
O  O61  1  0.88488691  0.31537350  0.50277958  1  -1.164552  0  -0.323209  -0.556427  0  2.316654  0
O  O62  1  0.88344060  0.68503913  0.51549650  1  -1.151552  0  -0.309322  -0.537227  0  2.351557  0
O  O63  1  0.11594609  0.30930321  0.48664779  1  -1.152927  0  -0.313161  -0.538437  0  2.340067  0
O  O64  1  0.06103300  0.48147348  0.34650046  1  -1.172632  0  -0.32377  -0.548751  0  2.285967  0
O  O65  1  0.93757162  0.49760862  0.65131732  1  -1.143126  0  -0.322188  -0.544242  0  2.299546  0
O  O66  1  0.83383254  0.50158639  0.36975378  1  -1.174448  0  -0.323281  -0.56489  0  2.354735  0
O  O67  1  0.16690534  0.49146181  0.63130681  1  -1.162998  0  -0.320006  -0.560636  0  2.330086  0
O  O68  1  0.83330083  0.90139908  0.61075357  1  -1.07015  0  -0.21662  -0.198312  0  2.5233  0
O  O69  1  0.17225534  0.08851200  0.38806240  1  -1.077543  0  -0.216745  -0.202844  0  2.536707  0
