# generated using pymatgen
data_SmNiH12C22N5O8
_symmetry_space_group_name_H-M   'P 1'
_cell_length_a   10.64052611
_cell_length_b   12.74221489
_cell_length_c   18.07616236
_cell_angle_alpha   89.99999807
_cell_angle_beta   90.41854086
_cell_angle_gamma   90.00001621
_symmetry_Int_Tables_number   1
_chemical_formula_structural   SmNiH12C22N5O8
_chemical_formula_sum   'Sm4 Ni4 H48 C88 N20 O32'
_cell_volume   2450.77066013
_cell_formula_units_Z   4
loop_
 _symmetry_equiv_pos_site_id
 _symmetry_equiv_pos_as_xyz
  1  'x, y, z'
loop_
 _atom_site_type_symbol
 _atom_site_label
 _atom_site_symmetry_multiplicity
 _atom_site_fract_x
 _atom_site_fract_y
 _atom_site_fract_z
 _atom_site_occupancy
 _atom_site_pbe_bader_charge
 _atom_site_pbe_bader_spin_density
 _atom_site_pbe_cm5_charge
 _atom_site_pbe_ddec_charge
 _atom_site_pbe_ddec_spin_density
 _atom_site_pbe_ddec_sum_bond_order
 _atom_site_pbe_magmom
Sm  Sm0  1  0.43372764  0.14497797  0.50871970  1  2.205502  0.003121  1.528133  2.048322  0.002575  2.196167  0.003
Sm  Sm1  1  0.06627175  0.64497890  0.99128026  1  2.205502  0.003121  1.528138  2.04834  0.002575  2.196127  0.003
Sm  Sm2  1  0.56627214  0.85502174  0.49128050  1  2.205535  0.003121  1.528108  2.04829  0.002575  2.19623  0.003
Sm  Sm3  1  0.93372710  0.35502238  0.00871882  1  2.205554  0.003121  1.5281  2.048299  0.002575  2.196196  0.003
Ni  Ni4  1  0.74214383  0.34669568  0.77176268  1  1.134152  1.542455  0.659434  0.650116  1.762487  2.600995  1.529
Ni  Ni5  1  0.75785533  0.84669588  0.72823706  1  1.134091  1.542455  0.659433  0.650094  1.762488  2.600975  1.529
Ni  Ni6  1  0.25785595  0.65330481  0.22823751  1  1.134152  1.542454  0.659453  0.650107  1.762485  2.600905  1.529
Ni  Ni7  1  0.24214352  0.15330461  0.27176202  1  1.134129  1.542455  0.659452  0.650113  1.762486  2.600884  1.529
H  H8  1  0.77538228  0.19973536  0.90348813  1  0.138677  -0.000274  0.124434  0.097017  -0.000386  1.022867  0.0
H  H9  1  0.72461777  0.69973556  0.59651162  1  0.138678  -0.000274  0.124438  0.097014  -0.000386  1.022867  0.0
H  H10  1  0.22461751  0.80026435  0.09651151  1  0.138682  -0.000274  0.124442  0.097036  -0.000386  1.022845  0.0
H  H11  1  0.27538201  0.30026493  0.40348802  1  0.138685  -0.000274  0.124432  0.097014  -0.000385  1.022855  0.0
H  H12  1  0.00536948  0.97561844  0.78823836  1  0.132589  -9e-05  0.113686  0.115578  -0.000159  0.998821  0.0
H  H13  1  0.49463097  0.47561829  0.71176159  1  0.132588  -9e-05  0.113704  0.115618  -0.000159  0.998782  0.0
H  H14  1  0.99463031  0.02438206  0.21176128  1  0.132584  -9e-05  0.113676  0.115558  -0.000159  0.998874  0.0
H  H15  1  0.50536976  0.52438220  0.28823861  1  0.132582  -9e-05  0.113675  0.115562  -0.000159  0.998866  0.0
H  H16  1  0.16471941  0.99477132  0.89056274  1  0.083245  -1e-05  0.11105  0.116943  -1.2e-05  0.982157  0.0
H  H17  1  0.33528104  0.49477037  0.60943721  1  0.08307  -1e-05  0.111032  0.11694  -1.2e-05  0.982127  0.0
H  H18  1  0.83528131  0.00522917  0.10943690  1  0.083209  -1e-05  0.111058  0.116952  -1.2e-05  0.982142  0.0
H  H19  1  0.66471968  0.50522934  0.39056299  1  0.083201  -1e-05  0.111052  0.116942  -1.2e-05  0.982142  0.0
H  H20  1  0.12541506  0.12996876  0.99004501  1  0.121842  -7e-06  0.122392  0.09328  -3.1e-05  0.990045  0.0
H  H21  1  0.37458527  0.62996900  0.50995495  1  0.121838  -7e-06  0.122395  0.093296  -3.1e-05  0.990034  0.0
H  H22  1  0.87458567  0.87003095  0.00995519  1  0.121847  -7e-06  0.122403  0.093308  -3.1e-05  0.990026  0.0
H  H23  1  0.62541545  0.37003071  0.49004470  1  0.121841  -7e-06  0.122384  0.093258  -3.1e-05  0.990066  0.0
H  H24  1  0.20267343  0.73787722  0.63305769  1  0.091701  0.001006  0.110427  0.117516  0.00047  1.007867  0.0
H  H25  1  0.29732599  0.23787703  0.86694227  1  0.091692  0.001006  0.110416  0.117516  0.00047  1.007866  0.0
H  H26  1  0.79732635  0.26212327  0.36694195  1  0.091691  0.001006  0.110418  0.117492  0.00047  1.007872  0.0
H  H27  1  0.70267379  0.76212347  0.13305793  1  0.091687  0.001006  0.110412  0.117503  0.00047  1.007876  0.0
H  H28  1  0.06720137  0.03735928  0.55769638  1  0.079387  0.000899  0.113684  0.124557  0.000398  1.012328  0.001
H  H29  1  0.43279893  0.53735951  0.94230358  1  0.079388  0.000899  0.113682  0.124556  0.000398  1.012327  0.001
H  H30  1  0.93279842  0.96264043  0.44230326  1  0.07943  0.000899  0.113673  0.124559  0.000398  1.012288  0.001
H  H31  1  0.56720085  0.46264020  0.05769661  1  0.079421  0.000899  0.113681  0.124561  0.000398  1.012335  0.001
H  H32  1  0.99662842  0.71342552  0.69824498  1  0.09633  0.001717  0.117597  0.089338  0.000564  1.005913  0.001
H  H33  1  0.50337163  0.21342604  0.80175532  1  0.09634  0.001718  0.117608  0.089356  0.000564  1.005893  0.001
H  H34  1  0.00337230  0.28657419  0.30175467  1  0.096332  0.001718  0.117605  0.089333  0.000564  1.005899  0.001
H  H35  1  0.49662816  0.78657445  0.19824487  1  0.09633  0.001717  0.117597  0.089335  0.000564  1.005914  0.001
H  H36  1  0.86408390  0.99906894  0.62052498  1  0.097886  0.001583  0.11946  0.087683  0.000491  1.023179  0.001
H  H37  1  0.63591625  0.49906949  0.87947476  1  0.097928  0.001583  0.119453  0.087666  0.000491  1.023191  0.001
H  H38  1  0.13591589  0.00093077  0.37947466  1  0.097885  0.001583  0.119459  0.087685  0.000491  1.023178  0.001
H  H39  1  0.36408354  0.50093100  0.12052488  1  0.097882  0.001583  0.119474  0.08771  0.000491  1.023159  0.001
H  H40  1  0.20137979  0.22735765  0.73873209  1  0.135226  0.001104  0.111022  0.121238  0.000524  1.0101  0.001
H  H41  1  0.29861964  0.72735865  0.76126841  1  0.135235  0.001104  0.111013  0.121217  0.000524  1.010111  0.001
H  H42  1  0.79862000  0.77264127  0.26126810  1  0.135235  0.001104  0.111028  0.121266  0.000524  1.010091  0.001
H  H43  1  0.70138015  0.27264106  0.23873178  1  0.135237  0.001104  0.111029  0.121262  0.000524  1.010091  0.001
H  H44  1  0.01125825  0.31452615  0.53731255  1  0.078748  0.000978  0.111913  0.124367  0.000452  0.99441  0.0
H  H45  1  0.48874121  0.81452719  0.96268740  1  0.078739  0.000979  0.111912  0.124381  0.000452  0.994387  0.0
H  H46  1  0.98874154  0.68547277  0.46268764  1  0.078742  0.000979  0.111942  0.124417  0.000452  0.994322  0.0
H  H47  1  0.51125952  0.18547252  0.03731225  1  0.078737  0.000979  0.111925  0.124411  0.000452  0.994323  0.0
H  H48  1  0.01197670  0.29018893  0.80884628  1  0.091415  0.001892  0.121782  0.095539  0.000628  1.022616  0.001
H  H49  1  0.48802368  0.79018919  0.69115422  1  0.091422  0.001892  0.12178  0.095537  0.000628  1.022631  0.001
H  H50  1  0.98802402  0.70981077  0.19115391  1  0.091419  0.001892  0.121778  0.095533  0.000628  1.022626  0.001
H  H51  1  0.51197610  0.20981052  0.30884597  1  0.091415  0.001892  0.121779  0.095527  0.000628  1.022626  0.001
H  H52  1  0.82761526  0.37333157  0.61530041  1  0.110033  0.001872  0.121308  0.098299  0.000656  0.998621  0.001
H  H53  1  0.67238485  0.87333174  0.88469934  1  0.110037  0.001872  0.121306  0.098273  0.000656  0.998667  0.001
H  H54  1  0.17238453  0.62666814  0.38469923  1  0.110148  0.001871  0.121307  0.098277  0.000656  0.998678  0.001
H  H55  1  0.32761494  0.12666875  0.11530030  1  0.110043  0.001872  0.121309  0.098279  0.000656  0.998652  0.001
C  C56  1  0.61586776  0.24907449  0.65000442  1  1.597326  -0.00252  0.226444  0.601623  -0.002925  4.201392  -0.002
C  C57  1  0.88413230  0.74907472  0.84999532  1  1.596905  -0.00252  0.226482  0.601696  -0.002925  4.201344  -0.002
C  C58  1  0.38413297  0.75092443  0.34999412  1  1.596857  -0.002521  0.226526  0.601734  -0.002925  4.201275  -0.002
C  C59  1  0.11586560  0.25092577  0.15000486  1  1.596856  -0.00252  0.226478  0.601715  -0.002925  4.20128  -0.002
C  C60  1  0.65888440  0.15931145  0.69530869  1  0.443811  -0.000805  0.081868  -0.000733  -0.002221  3.985182  0.0
C  C61  1  0.84111563  0.65931167  0.80469161  1  0.443798  -0.000806  0.081841  -0.00078  -0.002223  3.985162  0.0
C  C62  1  0.34111538  0.84068826  0.30469206  1  0.443799  -0.000804  0.081845  -0.000807  -0.00222  3.985173  0.0
C  C63  1  0.15888322  0.34068804  0.19530747  1  0.443796  -0.000806  0.081819  -0.000839  -0.002222  3.9852  0.0
C  C64  1  0.66470987  0.05056976  0.68363836  1  0.428627  -0.001557  0.074517  -0.01114  -0.002755  4.003956  -0.001
C  C65  1  0.83529013  0.55056998  0.81636084  1  0.428627  -0.001556  0.074501  -0.011183  -0.002754  4.00397  -0.001
C  C66  1  0.33528992  0.94942995  0.31636184  1  0.428633  -0.001558  0.074517  -0.011127  -0.002755  4.003848  -0.001
C  C67  1  0.16470966  0.44943130  0.18363880  1  0.428645  -0.001557  0.07456  -0.01111  -0.002755  4.003963  -0.001
C  C68  1  0.61149498  0.98022682  0.62834743  1  1.492481  -0.000915  0.220145  0.602725  -0.001367  4.185988  -0.001
C  C69  1  0.88850611  0.48022743  0.87165176  1  1.492052  -0.000915  0.220166  0.602813  -0.001366  4.185805  -0.001
C  C70  1  0.38850481  0.01977368  0.37165276  1  1.492445  -0.000914  0.220135  0.602749  -0.001366  4.185937  -0.001
C  C71  1  0.11149556  0.51977464  0.12834789  1  1.492483  -0.000915  0.220173  0.602766  -0.001366  4.185931  -0.001
C  C72  1  0.78244082  0.08922789  0.77864424  1  0.961084  -0.000685  0.213651  0.306193  -0.001027  3.978344  0.002
C  C73  1  0.71755919  0.58922808  0.72135607  1  0.961083  -0.000686  0.213649  0.306178  -0.001028  3.978332  0.002
C  C74  1  0.21755990  0.91077182  0.22135596  1  0.961096  -0.000685  0.213679  0.306199  -0.001027  3.97837  0.002
C  C75  1  0.28244060  0.41077163  0.27864357  1  0.961096  -0.000685  0.213643  0.306175  -0.001027  3.978351  0.002
C  C76  1  0.87699066  0.08655568  0.83771929  1  0.031737  0.001257  2.9e-05  -0.019525  0.00035  3.994633  0.001
C  C77  1  0.62300935  0.58655507  0.66228101  1  0.031747  0.001256  8.5e-05  -0.019411  0.00035  3.994489  0.001
C  C78  1  0.12300913  0.91344403  0.16228090  1  0.031745  0.001256  4e-05  -0.019504  0.00035  3.994675  0.001
C  C79  1  0.37699138  0.41344464  0.33771864  1  0.031752  0.001257  7.5e-05  -0.019479  0.000351  3.994648  0.001
C  C80  1  0.86155382  0.15448107  0.89763152  1  0.451662  -0.001665  0.052384  0.058071  -0.001952  3.962038  -0.001
C  C81  1  0.63844621  0.65448047  0.60236822  1  0.451679  -0.001665  0.052376  0.058073  -0.001952  3.962006  -0.001
C  C82  1  0.13844596  0.84551942  0.10236867  1  0.451661  -0.001665  0.052406  0.058089  -0.001952  3.962027  -0.001
C  C83  1  0.36155452  0.34551924  0.39763142  1  0.451666  -0.001666  0.052401  0.058121  -0.001953  3.961998  -0.001
C  C84  1  0.98872830  0.02828953  0.83443580  1  0.007035  -0.001294  -0.053764  -0.028355  -0.001436  3.901192  -0.001
C  C85  1  0.51127075  0.52828967  0.66556450  1  0.007036  -0.001294  -0.05381  -0.028453  -0.001436  3.901082  -0.001
C  C86  1  0.01127148  0.97171097  0.16556440  1  0.007038  -0.001294  -0.053741  -0.028319  -0.001436  3.90122  -0.001
C  C87  1  0.48872904  0.47171082  0.33443569  1  0.007029  -0.001295  -0.053747  -0.028337  -0.001437  3.901233  -0.001
C  C88  1  0.07802888  0.04037994  0.89064764  1  -0.045442  0.000422  -0.081663  -0.133849  0.000242  3.97099  0.0
C  C89  1  0.42197048  0.54038019  0.60935232  1  -0.045276  0.000421  -0.081617  -0.133807  0.000242  3.970835  0.0
C  C90  1  0.92197091  0.95961977  0.10935255  1  -0.045406  0.000421  -0.081647  -0.133825  0.000242  3.970945  0.0
C  C91  1  0.57802930  0.45961952  0.39064732  1  -0.045404  0.000422  -0.081638  -0.133803  0.000243  3.97093  0.0
C  C92  1  0.05680133  0.11371569  0.94641174  1  0.465791  -0.001241  0.055608  0.112438  -0.00145  3.967617  -0.001
C  C93  1  0.44319806  0.61371595  0.55358821  1  0.465781  -0.001241  0.055586  0.11242  -0.00145  3.967659  -0.001
C  C94  1  0.94319846  0.88628402  0.05358845  1  0.465786  -0.001241  0.055603  0.11243  -0.00145  3.96769  -0.001
C  C95  1  0.55680173  0.38628376  0.44641143  1  0.465789  -0.001242  0.055617  0.112476  -0.001451  3.967674  -0.001
C  C96  1  0.27476937  0.91570974  0.55406838  1  1.606083  -0.000118  0.230142  0.62953  -0.000231  4.159889  0.0
C  C97  1  0.22523012  0.41570952  0.94593157  1  1.606086  -0.000118  0.230101  0.629546  -0.000231  4.159944  0.0
C  C98  1  0.72522854  0.08429233  0.44593125  1  1.606091  -0.000118  0.23009  0.629492  -0.000231  4.159908  0.0
C  C99  1  0.77477155  0.58429176  0.05406919  1  1.606087  -0.000118  0.230063  0.629478  -0.000231  4.15997  0.0
C  C100  1  0.15115270  0.89089300  0.59123173  1  -0.075878  -0.005231  0.007576  0.019253  -0.00583  3.912493  -0.003
C  C101  1  0.34884678  0.39089360  0.90876766  1  -0.075776  -0.005234  0.007628  0.019288  -0.005833  3.912411  -0.003
C  C102  1  0.84884708  0.10910671  0.40876791  1  -0.075866  -0.005232  0.007593  0.019238  -0.005831  3.91244  -0.003
C  C103  1  0.65115301  0.60910611  0.09123198  1  -0.075706  -0.005233  0.007633  0.019289  -0.005833  3.912327  -0.003
C  C104  1  0.12972981  0.79786521  0.63020967  1  -0.012681  0.004997  -0.078094  -0.144114  0.00283  3.947266  0.004
C  C105  1  0.37026964  0.29786503  0.86979028  1  -0.012632  0.004999  -0.078139  -0.144198  0.002831  3.947228  0.004
C  C106  1  0.87026998  0.20213528  0.36978997  1  -0.012686  0.004998  -0.078067  -0.144082  0.00283  3.947234  0.004
C  C107  1  0.62973014  0.70213546  0.13020991  1  -0.012672  0.004999  -0.078127  -0.14417  0.002831  3.947209  0.004
C  C108  1  0.05375023  0.96434647  0.58790329  1  0.030209  0.004645  -0.074545  -0.135721  0.002654  3.934922  0.004
C  C109  1  0.44624928  0.46434630  0.91209666  1  0.030061  0.004647  -0.074528  -0.135693  0.002655  3.934869  0.004
C  C110  1  0.94624956  0.03565403  0.41209635  1  0.030217  0.004646  -0.074521  -0.13569  0.002655  3.934877  0.004
C  C111  1  0.55375051  0.53565341  0.08790353  1  0.030013  0.004647  -0.074539  -0.135718  0.002655  3.934859  0.004
C  C112  1  0.01517885  0.78384252  0.66585556  1  0.472492  -0.00309  0.04749  0.08767  -0.003852  3.931601  -0.002
C  C113  1  0.48482060  0.28384315  0.83414439  1  0.472543  -0.003091  0.04749  0.087684  -0.003853  3.931592  -0.002
C  C114  1  0.98482094  0.21615719  0.33414463  1  0.472542  -0.00309  0.047437  0.087653  -0.003852  3.931628  -0.002
C  C115  1  0.51517919  0.71615734  0.16585580  1  0.47249  -0.003091  0.04749  0.08769  -0.003852  3.931597  -0.002
C  C116  1  0.94130679  0.94333374  0.62332074  1  0.488598  -0.002817  0.050723  0.098168  -0.003627  3.925786  -0.002
C  C117  1  0.55869334  0.44333427  0.87667900  1  0.488555  -0.002818  0.050721  0.098174  -0.003628  3.925723  -0.002
C  C118  1  0.05869300  0.05666597  0.37667890  1  0.488592  -0.002817  0.050716  0.098148  -0.003627  3.925767  -0.002
C  C119  1  0.44130645  0.55666622  0.12332119  1  0.488655  -0.002818  0.05073  0.098165  -0.003628  3.925737  -0.002
C  C120  1  0.22882148  0.22472311  0.58960528  1  1.564034  -6.6e-05  0.186418  0.55651  -0.000194  4.262076  0.0
C  C121  1  0.27117794  0.72472409  0.91039523  1  1.564014  -6.6e-05  0.186413  0.556537  -0.000194  4.262156  0.0
C  C122  1  0.77117831  0.77527581  0.41039492  1  1.564016  -6.5e-05  0.186408  0.556528  -0.000194  4.262186  0.0
C  C123  1  0.72882184  0.27527640  0.08960496  1  1.564039  -6.6e-05  0.186402  0.556498  -0.000194  4.262218  0.0
C  C124  1  0.11901583  0.26529375  0.63284464  1  -0.006155  -0.004451  0.003939  0.023999  -0.00498  3.942678  -0.003
C  C125  1  0.38098360  0.76529476  0.86715586  1  -0.006161  -0.004449  0.003955  0.023988  -0.004978  3.942778  -0.003
C  C126  1  0.88098395  0.73470517  0.36715555  1  -0.006157  -0.004449  0.003939  0.023973  -0.004978  3.942772  -0.003
C  C127  1  0.61901618  0.23470495  0.13284433  1  -0.006155  -0.004448  0.003945  0.023974  -0.004977  3.942764  -0.003
C  C128  1  0.11981687  0.25955063  0.71002087  1  0.039182  0.005408  -0.075745  -0.137804  0.003108  3.935291  0.004
C  C129  1  0.38018256  0.75955165  0.78997963  1  0.039173  0.005406  -0.075738  -0.137785  0.003107  3.935324  0.004
C  C130  1  0.88018291  0.74044829  0.28997932  1  0.039182  0.005407  -0.075799  -0.137908  0.003107  3.93534  0.004
C  C131  1  0.61981723  0.24044806  0.21002056  1  0.03919  0.005406  -0.07578  -0.137876  0.003107  3.935304  0.004
C  C132  1  0.01374919  0.30828862  0.59743060  1  -0.087282  0.004766  -0.077847  -0.142778  0.002691  3.945637  0.004
C  C133  1  0.48625026  0.80828887  0.90256990  1  -0.087302  0.004764  -0.07784  -0.142793  0.00269  3.945605  0.004
C  C134  1  0.98625060  0.69171109  0.40256959  1  -0.087286  0.004764  -0.07787  -0.142817  0.00269  3.945543  0.004
C  C135  1  0.51374953  0.19171084  0.09743029  1  -0.087292  0.004763  -0.077843  -0.142801  0.00269  3.945541  0.004
C  C136  1  0.01521696  0.29376524  0.74871199  1  0.4705  -0.00166  0.046453  0.086521  -0.002408  3.92361  -0.001
C  C137  1  0.48478248  0.79376549  0.75128796  1  0.470498  -0.001658  0.046438  0.086511  -0.002406  3.923509  -0.001
C  C138  1  0.98478282  0.70623447  0.25128820  1  0.470496  -0.001659  0.046453  0.086543  -0.002406  3.923596  -0.001
C  C139  1  0.51521636  0.20623422  0.24871223  1  0.470507  -0.001658  0.046397  0.086467  -0.002405  3.923659  -0.001
C  C140  1  0.91278608  0.34088745  0.64010207  1  0.509755  -0.002897  0.043926  0.083152  -0.00376  3.937041  -0.002
C  C141  1  0.58721307  0.84088761  0.85989823  1  0.509759  -0.002895  0.043934  0.083198  -0.003758  3.937038  -0.002
C  C142  1  0.08721370  0.65911147  0.35989813  1  0.509633  -0.002895  0.043952  0.083195  -0.003758  3.937005  -0.002
C  C143  1  0.41278672  0.15911210  0.14010197  1  0.509749  -0.002895  0.04393  0.083148  -0.003757  3.937038  -0.002
N  N144  1  0.73040633  0.18201316  0.75648179  1  -1.179036  0.067793  -0.340021  -0.372937  0.039667  3.502127  0.06
N  N145  1  0.76959371  0.68201337  0.74351851  1  -1.179035  0.067793  -0.340037  -0.372953  0.039667  3.502124  0.06
N  N146  1  0.26959346  0.81798576  0.24351896  1  -1.17904  0.067792  -0.340032  -0.372921  0.039666  3.502127  0.06
N  N147  1  0.23040608  0.31798712  0.25648113  1  -1.179013  0.067794  -0.340014  -0.372902  0.039667  3.502079  0.06
N  N148  1  0.74391893  0.00808736  0.73593103  1  -1.184079  0.077062  -0.342655  -0.3438  0.04523  3.516427  0.067
N  N149  1  0.75608105  0.50808756  0.76406872  1  -1.184097  0.077061  -0.342665  -0.343799  0.04523  3.516474  0.067
N  N150  1  0.25608180  0.99191235  0.26406861  1  -1.184074  0.07706  -0.342673  -0.34381  0.04523  3.516396  0.067
N  N151  1  0.24391873  0.49191293  0.23593148  1  -1.184097  0.077061  -0.34267  -0.343803  0.04523  3.516437  0.067
N  N152  1  0.95036427  0.17065017  0.94933458  1  -1.268389  0.000273  -0.396276  -0.358564  0.000173  3.537361  0.0
N  N153  1  0.54963577  0.67065033  0.55066516  1  -1.268389  0.000273  -0.396297  -0.358624  0.000173  3.537422  0.0
N  N154  1  0.04963552  0.82935032  0.05066561  1  -1.268395  0.000273  -0.396357  -0.358692  0.000173  3.537494  0.0
N  N155  1  0.45036495  0.32935016  0.44933448  1  -1.26838  0.000274  -0.396336  -0.358696  0.000174  3.537456  0.0
N  N156  1  0.91220130  0.33215820  0.71439856  1  -1.235868  0.078232  -0.318224  -0.204976  0.045679  3.563784  0.07
N  N157  1  0.58779786  0.83215914  0.78560173  1  -1.23586  0.078231  -0.318218  -0.204976  0.045678  3.563655  0.07
N  N158  1  0.08779755  0.66784073  0.28560163  1  -1.235871  0.078233  -0.318204  -0.204936  0.045679  3.563705  0.07
N  N159  1  0.41220193  0.16784135  0.21439846  1  -1.235878  0.078231  -0.318156  -0.20483  0.045678  3.563734  0.07
N  N160  1  0.92194195  0.85554602  0.66327620  1  -1.193483  0.069701  -0.313671  -0.214656  0.04067  3.54876  0.063
N  N161  1  0.57805815  0.35554577  0.83672354  1  -1.193534  0.069701  -0.313669  -0.214659  0.04067  3.548748  0.063
N  N162  1  0.07805784  0.14445369  0.33672344  1  -1.193536  0.0697  -0.313662  -0.214655  0.040669  3.54875  0.063
N  N163  1  0.42194164  0.64445394  0.16327610  1  -1.19349  0.069701  -0.313682  -0.214672  0.04067  3.548728  0.063
O  O164  1  0.63991021  0.33976124  0.67697446  1  -1.120273  0.096273  -0.296337  -0.510069  0.053688  2.384894  0.089
O  O165  1  0.86008988  0.83976068  0.82302584  1  -1.120263  0.096271  -0.296315  -0.510042  0.053688  2.384908  0.089
O  O166  1  0.36008957  0.66023847  0.32302629  1  -1.120295  0.096271  -0.296338  -0.510048  0.053687  2.38495  0.089
O  O167  1  0.13990802  0.16023903  0.17697379  1  -1.120228  0.096275  -0.296329  -0.510046  0.053689  2.384877  0.089
O  O168  1  0.56772397  0.23709149  0.58654098  1  -1.190226  0.008667  -0.412501  -0.645181  0.004305  2.376498  0.007
O  O169  1  0.93227609  0.73709172  0.91345932  1  -1.189816  0.008667  -0.412516  -0.645226  0.004304  2.376479  0.007
O  O170  1  0.43227487  0.76290822  0.41346032  1  -1.189775  0.008668  -0.412536  -0.645247  0.004305  2.376381  0.007
O  O171  1  0.06772558  0.26291034  0.08653978  1  -1.189811  0.008667  -0.412516  -0.645244  0.004305  2.376416  0.007
O  O172  1  0.53319041  0.01082941  0.57922734  1  -1.200096  0.004567  -0.431401  -0.706802  0.002276  2.483441  0.004
O  O173  1  0.96680958  0.51082886  0.92077186  1  -1.199668  0.004567  -0.431406  -0.706861  0.002276  2.483355  0.004
O  O174  1  0.46681032  0.98917030  0.42077341  1  -1.200075  0.004567  -0.431382  -0.70682  0.002276  2.483362  0.004
O  O175  1  0.03319021  0.48917085  0.07922723  1  -1.200086  0.004567  -0.431441  -0.706878  0.002276  2.483334  0.004
O  O176  1  0.64849127  0.88374516  0.62853727  1  -1.150271  0.052261  -0.325136  -0.601455  0.029773  2.35712  0.048
O  O177  1  0.85150791  0.38374577  0.87146247  1  -1.150323  0.05226  -0.325128  -0.601457  0.029772  2.357092  0.048
O  O178  1  0.35150852  0.11625455  0.37146293  1  -1.150355  0.052256  -0.325139  -0.601479  0.029771  2.35714  0.048
O  O179  1  0.14849094  0.61625551  0.12853772  1  -1.150389  0.052258  -0.325154  -0.601475  0.029772  2.357251  0.048
O  O180  1  0.28105816  0.00591500  0.52440886  1  -1.195092  -0.00046  -0.383698  -0.653365  -0.00057  2.322965  0.0
O  O181  1  0.21894119  0.50591519  0.97559110  1  -1.195086  -0.00046  -0.383674  -0.653358  -0.00057  2.322998  0.0
O  O182  1  0.71894162  0.99408471  0.47559133  1  -1.195079  -0.00046  -0.383693  -0.65337  -0.00057  2.322851  0.0
O  O183  1  0.78105860  0.49408452  0.02440855  1  -1.195107  -0.00046  -0.383691  -0.653383  -0.00057  2.322896  0.0
O  O184  1  0.36034405  0.84632934  0.55553369  1  -1.168198  -0.000433  -0.36748  -0.639219  -0.000555  2.253719  0.0
O  O185  1  0.13965542  0.34632989  0.94446626  1  -1.16821  -0.000433  -0.367467  -0.639231  -0.000555  2.253718  0.0
O  O186  1  0.63965668  0.15367037  0.44446650  1  -1.168214  -0.000433  -0.367448  -0.639153  -0.000555  2.253807  0.0
O  O187  1  0.86034343  0.65366982  0.05553338  1  -1.168204  -0.000433  -0.367432  -0.639127  -0.000555  2.253826  0.0
O  O188  1  0.22597156  0.23239996  0.51912855  1  -1.175378  -0.00032  -0.380358  -0.630821  -0.000387  2.20503  0.0
O  O189  1  0.27402880  0.73240015  0.98087196  1  -1.175382  -0.00032  -0.380375  -0.630851  -0.000387  2.204984  0.0
O  O190  1  0.77402916  0.76759975  0.48087220  1  -1.175378  -0.00032  -0.38038  -0.630858  -0.000387  2.204992  0.0
O  O191  1  0.72597098  0.26759956  0.01912823  1  -1.175394  -0.00032  -0.380366  -0.630824  -0.000387  2.204991  0.0
O  O192  1  0.32018813  0.18352620  0.62493084  1  -1.169255  -0.000343  -0.378242  -0.609784  -0.00047  2.166367  0.0
O  O193  1  0.17981128  0.68352638  0.87506967  1  -1.169225  -0.000343  -0.378218  -0.609753  -0.00047  2.16643  0.0
O  O194  1  0.67981166  0.81647272  0.37506936  1  -1.169236  -0.000343  -0.37819  -0.609724  -0.00047  2.166437  0.0
O  O195  1  0.82018851  0.31647333  0.12493052  1  -1.169249  -0.000343  -0.3782  -0.609729  -0.000469  2.166438  0.0
