# generated using pymatgen
data_MnH8(CO)8
_symmetry_space_group_name_H-M   'P 1'
_cell_length_a   7.00938287
_cell_length_b   8.18190486
_cell_length_c   9.37865436
_cell_angle_alpha   64.17016158
_cell_angle_beta   82.91715401
_cell_angle_gamma   73.51843323
_symmetry_Int_Tables_number   1
_chemical_formula_structural   MnH8(CO)8
_chemical_formula_sum   'Mn2 H16 C16 O16'
_cell_volume   464.23719738
_cell_formula_units_Z   2
loop_
 _symmetry_equiv_pos_site_id
 _symmetry_equiv_pos_as_xyz
  1  'x, y, z'
loop_
 _atom_site_type_symbol
 _atom_site_label
 _atom_site_symmetry_multiplicity
 _atom_site_fract_x
 _atom_site_fract_y
 _atom_site_fract_z
 _atom_site_occupancy
 _atom_site_pbe_cm5_charge
 _atom_site_pbe_ddec_charge
 _atom_site_pbe_ddec_spin_density
 _atom_site_pbe_ddec_sum_bond_order
 _atom_site_pbe_magmom
Mn  Mn0  1  0.24997696  0.18946472  0.62082110  1  0.611419  1.108479  4.651333  2.289588  4.479
Mn  Mn1  1  0.75002373  0.81053495  0.37918066  1  0.611407  1.108474  4.651331  2.289567  4.479
H  H2  1  0.29667395  0.82956834  0.92222585  1  0.115883  0.138813  -6.1e-05  1.012659  0.0
H  H3  1  0.20362567  0.24790899  0.92259794  1  0.115575  0.13867  -6e-05  1.011925  0.0
H  H4  1  0.70332507  0.17042675  0.07777620  1  0.115894  0.138825  -6.2e-05  1.012646  0.0
H  H5  1  0.79637522  0.75209152  0.07739740  1  0.115575  0.138713  -6.1e-05  1.011912  0.0
H  H6  1  0.53823254  0.20665098  0.78060548  1  0.301635  0.382172  0.000709  0.95108  0.002
H  H7  1  0.96173719  0.01251919  0.78062174  1  0.301818  0.38252  0.00071  0.950845  0.002
H  H8  1  0.46176894  0.79334367  0.21939844  1  0.301649  0.382187  0.000709  0.951071  0.002
H  H9  1  0.03826166  0.98748043  0.21938143  1  0.301838  0.382586  0.00071  0.950755  0.002
H  H10  1  0.63464355  0.49157706  0.66579607  1  0.307902  0.355125  -0.000486  0.97642  0.0
H  H11  1  0.86579772  0.84215203  0.66572148  1  0.307538  0.354163  -0.000482  0.978392  0.0
H  H12  1  0.36535468  0.50842412  0.33420276  1  0.307917  0.355148  -0.000486  0.976378  0.0
H  H13  1  0.13419823  0.15784504  0.33427437  1  0.307537  0.354155  -0.000483  0.978413  0.0
H  H14  1  0.59740391  0.00162705  0.79245146  1  0.301286  0.383866  0.000783  0.950247  0.002
H  H15  1  0.90264809  0.20563465  0.79255793  1  0.301147  0.384657  0.000779  0.949227  0.002
H  H16  1  0.40259450  0.99836852  0.20754731  1  0.301305  0.383894  0.000783  0.950207  0.002
H  H17  1  0.09734320  0.79436758  0.20744396  1  0.301159  0.384691  0.000779  0.949164  0.002
C  C18  1  0.47144567  0.62492161  0.83842331  1  -0.029393  -0.158845  0.004043  4.00955  0.003
C  C19  1  0.02862612  0.53642606  0.83840564  1  -0.028727  -0.157206  0.004056  4.007252  0.003
C  C20  1  0.52856156  0.37507683  0.16157695  1  -0.029391  -0.158927  0.004045  4.009602  0.003
C  C21  1  0.97137705  0.46357748  0.16159374  1  -0.028672  -0.157155  0.004054  4.007286  0.003
C  C22  1  0.38567015  0.68554625  0.95553975  1  -0.093941  -0.188281  0.003865  3.948357  0.003
C  C23  1  0.11448438  0.35882570  0.95562264  1  -0.093845  -0.187572  0.003905  3.944986  0.003
C  C24  1  0.61433484  0.31445518  0.04446032  1  -0.093962  -0.188319  0.003863  3.948499  0.003
C  C25  1  0.88552021  0.64117663  0.04437795  1  -0.093827  -0.187551  0.003909  3.94479  0.003
C  C26  1  0.58594129  0.43668499  0.88507716  1  0.077432  0.273563  0.002783  4.043055  0.002
C  C27  1  0.91403338  0.67801804  0.88502449  1  0.077109  0.271513  0.002805  4.044028  0.002
C  C28  1  0.41406656  0.56331297  0.11492639  1  0.077423  0.273579  0.002782  4.043026  0.002
C  C29  1  0.08596999  0.32198740  0.11496741  1  0.077097  0.27153  0.002805  4.044056  0.002
C  C30  1  0.44552862  0.75676658  0.66725788  1  0.227459  0.611342  0.027965  4.141958  0.026
C  C31  1  0.05488564  0.57568521  0.66726669  1  0.227757  0.610188  0.028151  4.141164  0.026
C  C32  1  0.55447207  0.24323201  0.33274494  1  0.227466  0.61141  0.027962  4.141878  0.026
C  C33  1  0.94511485  0.42431726  0.33272809  1  0.227713  0.61013  0.028155  4.141074  0.026
O  O34  1  0.33093654  0.91973128  0.62333795  1  -0.303895  -0.549267  0.047948  2.32633  0.03
O  O35  1  0.16955120  0.45660094  0.62339974  1  -0.30409  -0.54873  0.047974  2.326627  0.03
O  O36  1  0.66905985  0.08026877  0.37666336  1  -0.303894  -0.549264  0.047948  2.326251  0.03
O  O37  1  0.83044274  0.54340061  0.37659865  1  -0.304087  -0.548723  0.047975  2.326421  0.03
O  O38  1  0.54662931  0.69293312  0.56834610  1  -0.305337  -0.568227  0.041734  2.349531  0.025
O  O39  1  0.95410480  0.73852626  0.56819645  1  -0.305357  -0.567681  0.041715  2.348288  0.025
O  O40  1  0.45336994  0.30706668  0.43165550  1  -0.305357  -0.568268  0.041735  2.34957  0.025
O  O41  1  0.04589774  0.26147561  0.43180176  1  -0.305371  -0.567686  0.041716  2.348245  0.025
O  O42  1  0.66766982  0.37139032  0.77279555  1  -0.333422  -0.471035  0.001478  2.382276  0.002
O  O43  1  0.83231130  0.85544840  0.77271206  1  -0.333329  -0.469313  0.001475  2.382364  0.002
O  O44  1  0.33233311  0.62860850  0.22720428  1  -0.333425  -0.471073  0.001478  2.382327  0.002
O  O45  1  0.16768671  0.14454913  0.22728616  1  -0.333338  -0.469325  0.001475  2.382302  0.002
O  O46  1  0.48114194  0.10312435  0.79426161  1  -0.571254  -0.763859  0.043471  2.153935  0.028
O  O47  1  0.01889888  0.10237072  0.79428839  1  -0.571355  -0.765047  0.043405  2.152351  0.028
O  O48  1  0.51885851  0.89687061  0.20574059  1  -0.571299  -0.763914  0.04347  2.153927  0.028
O  O49  1  0.98109772  0.89762867  0.20571777  1  -0.571369  -0.765125  0.043406  2.152299  0.028
