# generated using pymatgen
data_Dy2CoH20(C7O6)4
_symmetry_space_group_name_H-M   'P 1'
_cell_length_a   9.18187220
_cell_length_b   10.07886666
_cell_length_c   11.58895740
_cell_angle_alpha   73.65245906
_cell_angle_beta   79.45871137
_cell_angle_gamma   83.16918195
_symmetry_Int_Tables_number   1
_chemical_formula_structural   Dy2CoH20(C7O6)4
_chemical_formula_sum   'Dy2 Co1 H20 C28 O24'
_cell_volume   1009.16025176
_cell_formula_units_Z   1
loop_
 _symmetry_equiv_pos_site_id
 _symmetry_equiv_pos_as_xyz
  1  'x, y, z'
loop_
 _atom_site_type_symbol
 _atom_site_label
 _atom_site_symmetry_multiplicity
 _atom_site_fract_x
 _atom_site_fract_y
 _atom_site_fract_z
 _atom_site_occupancy
 _atom_site_hse06_10hf_ddec_charge
 _atom_site_hse06_10hf_ddec_spin_density
 _atom_site_hse06_10hf_ddec_sum_bond_order
 _atom_site_hse06_10hf_magmom
 _atom_site_hse06_ddec_charge
 _atom_site_hse06_ddec_spin_density
 _atom_site_hse06_ddec_sum_bond_order
 _atom_site_hse06_magmom
 _atom_site_pbe_cm5_charge
 _atom_site_pbe_ddec_charge
 _atom_site_pbe_ddec_spin_density
 _atom_site_pbe_ddec_sum_bond_order
 _atom_site_pbe_magmom
Dy  Dy0  1  0.90844860  0.91581664  0.36101565  1  2.078165  -0.000927  2.197438  -0.001  2.206994  -0.000623  2.003501  0.0  1.531961  2.041869  -0.001475  2.231073  -0.001
Dy  Dy1  1  0.09154984  0.08418429  0.63898491  1  2.07815  -0.000925  2.197429  -0.001  2.206978  -0.000625  2.003499  0.0  1.531949  2.041861  -0.001475  2.231068  -0.001
Co  Co2  1  0.00000001  0.00000054  0.99999956  1  0.975724  1.038974  2.596034  0.978  1.061584  1.029783  2.504172  0.973  0.632517  0.933283  1.048292  2.652635  0.978
H  H3  1  0.78987431  0.65729908  0.49035407  1  0.381236  -0.0  0.873832  0.0  0.390061  0.0  0.865398  0.0  0.33368  0.374955  -6e-06  0.880814  0.0
H  H4  1  0.21012539  0.34269977  0.50964509  1  0.381259  0.0  0.873799  0.0  0.390084  1e-06  0.865367  0.0  0.333701  0.374978  -6e-06  0.880781  0.0
H  H5  1  0.73321564  0.99502379  0.57500555  1  0.372064  -1.7e-05  0.960853  0.0  0.383285  -1.2e-05  0.948848  0.0  0.306911  0.364216  -3.1e-05  0.969824  0.0
H  H6  1  0.26678391  0.00497713  0.42499486  1  0.372044  -1.6e-05  0.960778  0.0  0.383262  -1.2e-05  0.94878  0.0  0.306907  0.364196  -3.1e-05  0.969746  0.0
H  H7  1  0.25937586  0.21606916  0.98011178  1  0.150088  -7.5e-05  1.035614  0.0  0.154362  -0.000144  1.033147  0.0  0.115882  0.146858  -4.1e-05  1.037471  0.0
H  H8  1  0.74062606  0.78392967  0.01989138  1  0.150116  -7.5e-05  1.035524  0.0  0.154392  -0.000144  1.033051  0.0  0.115875  0.146883  -4.1e-05  1.037381  0.0
H  H9  1  0.56418275  0.23338356  0.92844820  1  0.156437  -7.1e-05  0.96553  0.0  0.16036  -6.9e-05  0.963215  0.0  0.121522  0.153399  -8.8e-05  0.967671  0.0
H  H10  1  0.43582012  0.76661735  0.07155173  1  0.15645  -7.1e-05  0.965475  0.0  0.160374  -6.9e-05  0.963159  0.0  0.121533  0.15341  -8.8e-05  0.967618  0.0
H  H11  1  0.84033766  0.29353165  0.15056912  1  0.157541  -5.9e-05  0.984116  0.0  0.161332  -4.3e-05  0.98174  0.0  0.123122  0.154545  -6.4e-05  0.986142  0.0
H  H12  1  0.15965833  0.70647239  0.84943018  1  0.157533  -5.9e-05  0.984148  0.0  0.161328  -4.4e-05  0.981761  0.0  0.123134  0.154543  -6.4e-05  0.986158  0.0
H  H13  1  0.84978541  0.56860140  0.02662306  1  0.143131  -3.6e-05  1.000547  0.0  0.146005  -3.9e-05  0.999652  0.0  0.114858  0.140962  -2.4e-05  1.00136  0.0
H  H14  1  0.15021288  0.43140160  0.97337616  1  0.143109  -3.6e-05  1.000542  0.0  0.145982  -3.9e-05  0.999648  0.0  0.114845  0.140932  -2.4e-05  1.001365  0.0
H  H15  1  0.49787421  0.88056110  0.61863064  1  0.085376  6e-06  0.990587  0.0  0.086708  4e-06  0.988928  0.0  0.108435  0.084546  8e-06  0.991444  0.0
H  H16  1  0.50212549  0.11943775  0.38136852  1  0.085416  6e-06  0.990559  0.0  0.086748  4e-06  0.988896  0.0  0.108436  0.084582  8e-06  0.991414  0.0
H  H17  1  0.66078862  0.77108022  0.65671736  1  0.05921  -1.4e-05  0.98211  0.0  0.059531  -1.2e-05  0.981768  0.0  0.098314  0.059063  -1.9e-05  0.98216  0.0
H  H18  1  0.33921314  0.22892070  0.34328186  1  0.059222  -1.4e-05  0.982099  0.0  0.059544  -1.2e-05  0.981756  0.0  0.098315  0.059075  -1.9e-05  0.98215  0.0
H  H19  1  0.52609705  0.67212088  0.53518194  1  0.079062  -0.0  0.951516  0.0  0.07923  -1e-06  0.951387  0.0  0.109046  0.079063  -3e-06  0.951469  0.0
H  H20  1  0.47390258  0.32787901  0.46481957  1  0.079042  -1e-06  0.951527  0.0  0.079199  -1e-06  0.951406  0.0  0.109046  0.079042  -3e-06  0.95148  0.0
H  H21  1  0.53502750  0.83081889  0.41698500  1  0.10278  1.2e-05  0.964921  0.0  0.104071  6e-06  0.963372  0.0  0.119118  0.101893  1.7e-05  0.965935  0.0
H  H22  1  0.46497102  0.16918100  0.58301581  1  0.102809  1.2e-05  0.964879  0.0  0.10408  6e-06  0.963352  0.0  0.119128  0.101923  1.7e-05  0.965893  0.0
C  C23  1  0.17504130  0.02083788  0.22327606  1  0.571  0.003058  4.23678  0.005  0.606553  0.002373  4.23261  0.004  0.195279  0.546049  0.003589  4.244276  0.006
C  C24  1  0.82496165  0.97916200  0.77672411  1  0.570901  0.003058  4.236826  0.005  0.606453  0.002372  4.232659  0.004  0.195247  0.545952  0.003589  4.244324  0.006
C  C25  1  0.31302405  0.07494532  0.15013625  1  0.08184  -0.003757  3.923396  -0.002  0.083675  -0.002809  3.934828  -0.002  0.069035  0.07984  -0.005055  3.916225  -0.003
C  C26  1  0.68697573  0.92505250  0.84986488  1  0.081822  -0.003757  3.923395  -0.002  0.083657  -0.002821  3.934829  -0.002  0.069007  0.079816  -0.005054  3.916237  -0.003
C  C27  1  0.34288686  0.16667362  0.03671314  1  -0.16473  0.001112  3.978382  0.002  -0.164339  0.000908  3.992565  0.001  -0.099613  -0.16508  0.001312  3.969643  0.002
C  C28  1  0.65711498  0.83332626  0.96328805  1  -0.164661  0.001111  3.978292  0.002  -0.164272  0.000913  3.992477  0.001  -0.099552  -0.165005  0.001311  3.969557  0.002
C  C29  1  0.49871998  0.17431629  0.01035983  1  -0.175992  -0.002761  3.995828  -0.002  -0.1765  -0.002016  4.010634  -0.001  -0.101372  -0.175925  -0.003762  3.986818  -0.002
C  C30  1  0.50128283  0.82568566  0.98963985  1  -0.176037  -0.00276  3.995812  -0.002  -0.176545  -0.002012  4.010619  -0.001  -0.101383  -0.175978  -0.003761  3.986794  -0.002
C  C31  1  0.55552898  0.08704243  0.10937236  1  0.076503  0.000947  3.949874  0.002  0.078471  0.000861  3.961081  0.001  0.07187  0.075019  0.000874  3.942187  0.002
C  C32  1  0.44447160  0.91295952  0.89062851  1  0.076438  0.000947  3.94994  0.002  0.078405  0.000859  3.961146  0.001  0.071805  0.074987  0.000873  3.942212  0.002
C  C33  1  0.70915230  0.04197911  0.12942023  1  0.599921  -0.005378  4.225998  -0.003  0.640865  -0.000732  4.215527  0.001  0.225423  0.571625  -0.008415  4.234853  -0.005
C  C34  1  0.29084955  0.95802077  0.87057923  1  0.600067  -0.005376  4.225992  -0.003  0.64101  -0.000734  4.215522  0.001  0.225497  0.571763  -0.008414  4.234845  -0.005
C  C35  1  0.96948608  0.72668109  0.17196091  1  0.597036  -0.003745  4.22236  -0.002  0.63637  -0.000771  4.215138  0.0  0.224569  0.570664  -0.005716  4.228676  -0.004
C  C36  1  0.03051355  0.27331879  0.82804060  1  0.596985  -0.003745  4.222421  -0.002  0.636319  -0.000773  4.215199  0.0  0.224561  0.570611  -0.005717  4.228739  -0.004
C  C37  1  0.95603503  0.23967171  0.38648828  1  0.650172  -0.000201  4.215508  0.0  0.687016  -7e-05  4.206722  0.0  0.231611  0.625771  -0.000676  4.223955  0.0
C  C38  1  0.04396230  0.76032922  0.61351072  1  0.650175  -0.000201  4.215452  0.0  0.687019  -6.9e-05  4.206667  0.0  0.231641  0.625773  -0.000676  4.223896  0.0
C  C39  1  0.92976756  0.36183844  0.28613027  1  0.065968  -0.001373  3.932288  -0.001  0.0671  -0.000831  3.944171  0.0  0.068503  0.064838  -0.002154  3.923279  -0.001
C  C40  1  0.07023104  0.63816042  0.71386819  1  0.065962  -0.001374  3.932131  -0.001  0.06709  -0.000833  3.944018  0.0  0.068461  0.064831  -0.002154  3.923125  -0.001
C  C41  1  0.87495820  0.37661565  0.17959100  1  -0.161936  0.000177  3.970176  0.0  -0.162292  0.000175  3.986255  0.0  -0.095878  -0.161896  0.00014  3.959605  0.0
C  C42  1  0.12504246  0.62338528  0.82040751  1  -0.161955  0.000177  3.970209  0.0  -0.162312  0.000177  3.986279  0.0  -0.095865  -0.161915  0.00014  3.959638  0.0
C  C43  1  0.88145513  0.51845548  0.11510728  1  -0.17976  -0.001391  4.009349  -0.001  -0.181773  -0.000948  4.027377  -0.001  -0.101588  -0.178458  -0.001964  3.997688  -0.001
C  C44  1  0.11854545  0.48154648  0.88489099  1  -0.179754  -0.00139  4.009365  -0.001  -0.181766  -0.000939  4.027392  -0.001  -0.101615  -0.17845  -0.001964  3.997706  -0.001
C  C45  1  0.93964160  0.58203871  0.18596498  1  0.085571  -0.00027  3.91597  0.0  0.087842  2.2e-05  3.927207  0.0  0.073905  0.083415  -0.000565  3.908311  0.0
C  C46  1  0.06035810  0.41796014  0.81403505  1  0.085587  -0.000271  3.915936  0.0  0.08786  1.9e-05  3.927165  0.0  0.073936  0.083444  -0.000565  3.90826  0.0
C  C47  1  0.60772259  0.84019697  0.58121903  1  0.039604  -7e-06  3.941036  0.0  0.046457  -3e-06  3.948968  0.0  -0.076019  0.035059  -1.4e-05  3.937005  0.0
C  C48  1  0.39227807  0.15980395  0.41878036  1  0.039549  -7e-06  3.94106  0.0  0.046411  -4e-06  3.948976  0.0  -0.076007  0.035009  -1.4e-05  3.937023  0.0
C  C49  1  0.59102394  0.76296444  0.49034936  1  0.045636  5e-06  3.902397  0.0  0.052309  4e-06  3.910021  0.0  -0.071731  0.041077  2e-06  3.898723  0.0
C  C50  1  0.40897577  0.23703441  0.50965153  1  0.045654  5e-06  3.90238  0.0  0.052349  4e-06  3.909999  0.0  -0.071741  0.041098  2e-06  3.898705  0.0
O  O51  1  0.17267749  0.95327142  0.33586890  1  -0.631238  0.003551  2.249  0.006  -0.662819  0.00259  2.237066  0.005  -0.357445  -0.614646  0.004828  2.256647  0.008
O  O52  1  0.82731992  0.04672848  0.66413120  1  -0.631218  0.003551  2.249001  0.006  -0.6628  0.002589  2.237068  0.005  -0.357441  -0.614623  0.004829  2.256651  0.008
O  O53  1  0.05672506  0.04259307  0.17533132  1  -0.641859  0.011705  2.388888  0.016  -0.678596  0.010096  2.376381  0.013  -0.351619  -0.622871  0.014209  2.396918  0.02
O  O54  1  0.94327789  0.95740681  0.82466884  1  -0.641776  0.011705  2.388957  0.016  -0.678507  0.010097  2.376438  0.013  -0.351591  -0.622794  0.014209  2.397002  0.02
O  O55  1  0.44294860  0.02704989  0.19632374  1  -0.1105  -0.000407  2.616734  0.0  -0.125151  -7.4e-05  2.623866  0.0  -0.107455  -0.100424  -0.000928  2.611419  -0.001
O  O56  1  0.55705443  0.97294895  0.80367839  1  -0.110474  -0.000407  2.616809  0.0  -0.125125  -7.3e-05  2.623938  0.0  -0.107434  -0.100405  -0.000927  2.611487  -0.001
O  O57  1  0.73468070  0.97566679  0.23527788  1  -0.675332  -0.00258  2.33609  -0.002  -0.710854  -0.000678  2.3161  0.0  -0.410278  -0.659542  -0.003683  2.346834  -0.003
O  O58  1  0.26532114  0.02433309  0.76472158  1  -0.675371  -0.00258  2.336101  -0.002  -0.710894  -0.000679  2.316111  0.0  -0.410286  -0.659588  -0.003683  2.346863  -0.003
O  O59  1  0.80322625  0.07423559  0.03177594  1  -0.529521  -0.007266  2.457895  -0.005  -0.573011  -0.01097  2.447843  -0.009  -0.290251  -0.500765  -0.005308  2.462797  -0.003
O  O60  1  0.19677671  0.92576428  0.96822423  1  -0.529586  -0.007267  2.457822  -0.005  -0.573076  -0.010965  2.447768  -0.009  -0.29028  -0.500832  -0.005309  2.462729  -0.003
O  O61  1  0.94797437  0.81080797  0.06988470  1  -0.529929  -0.007352  2.452718  -0.006  -0.572907  -0.009924  2.443809  -0.008  -0.283141  -0.5005  -0.005523  2.456572  -0.004
O  O62  1  0.05202636  0.18919191  0.93011578  1  -0.529879  -0.007351  2.452729  -0.006  -0.572855  -0.009922  2.443817  -0.008  -0.283145  -0.500449  -0.005522  2.45658  -0.004
O  O63  1  0.01022105  0.75538993  0.26033211  1  -0.661742  -0.001536  2.321145  -0.001  -0.697324  -0.000859  2.304193  -0.001  -0.413339  -0.645692  -0.001997  2.330115  -0.001
O  O64  1  0.98977747  0.24460995  0.73966956  1  -0.661728  -0.001536  2.321151  -0.001  -0.697312  -0.000862  2.304203  -0.001  -0.413324  -0.645678  -0.001998  2.330124  -0.001
O  O65  1  0.90335515  0.12850088  0.38666195  1  -0.703792  -0.00026  2.391656  0.0  -0.744532  -0.000122  2.378999  0.0  -0.419885  -0.68594  -0.000416  2.399297  0.0
O  O66  1  0.09663886  0.87150005  0.61334098  1  -0.70386  -0.00026  2.391699  0.0  -0.744596  -0.00012  2.379032  0.0  -0.419916  -0.68601  -0.000416  2.399342  0.0
O  O67  1  0.02956678  0.25051570  0.46605483  1  -0.678645  -0.000134  2.283677  0.0  -0.711952  -6.6e-05  2.26411  0.0  -0.392766  -0.662835  -0.000378  2.294205  0.0
O  O68  1  0.97043166  0.74948523  0.53394315  1  -0.678607  -0.000133  2.283697  0.0  -0.711913  -6.9e-05  2.26413  0.0  -0.39276  -0.662796  -0.000379  2.294221  0.0
O  O69  1  0.96943902  0.48683209  0.29074045  1  -0.095177  -0.000376  2.603846  0.0  -0.107994  -6.9e-05  2.608223  0.0  -0.105802  -0.086312  -0.000699  2.600376  -0.001
O  O70  1  0.03055957  0.51316677  0.70925974  1  -0.09515  -0.000376  2.603787  0.0  -0.107965  -7.1e-05  2.608163  0.0  -0.105802  -0.086289  -0.000699  2.600317  -0.001
O  O71  1  0.69974236  0.95225833  0.51659124  1  -0.585468  -4.4e-05  2.420955  0.0  -0.613979  -3.5e-05  2.408759  0.0  -0.452332  -0.572032  -6.1e-05  2.428625  0.0
O  O72  1  0.30025823  0.04774363  0.48340876  1  -0.585442  -4.4e-05  2.420932  0.0  -0.613955  -3.4e-05  2.40873  0.0  -0.452322  -0.572008  -6.1e-05  2.428601  0.0
O  O73  1  0.73490062  0.72200557  0.43020402  1  -0.540598  -2.3e-05  2.317484  0.0  -0.565386  -7e-06  2.305337  0.0  -0.428787  -0.528472  -6.3e-05  2.324802  0.0
O  O74  1  0.26509798  0.27799328  0.56979531  1  -0.540636  -2.4e-05  2.317446  0.0  -0.56542  -8e-06  2.305289  0.0  -0.428819  -0.528508  -6.3e-05  2.324765  0.0
