# generated using pymatgen
data_CoH22C34(NO)4
_symmetry_space_group_name_H-M   'P 1'
_cell_length_a   8.25109466
_cell_length_b   11.49519286
_cell_length_c   35.14853705
_cell_angle_alpha   89.99934601
_cell_angle_beta   90.00027772
_cell_angle_gamma   105.03873311
_symmetry_Int_Tables_number   1
_chemical_formula_structural   CoH22C34(NO)4
_chemical_formula_sum   'Co4 H88 C136 N16 O16'
_cell_volume   3219.58643785
_cell_formula_units_Z   4
loop_
 _symmetry_equiv_pos_site_id
 _symmetry_equiv_pos_as_xyz
  1  'x, y, z'
loop_
 _atom_site_type_symbol
 _atom_site_label
 _atom_site_symmetry_multiplicity
 _atom_site_fract_x
 _atom_site_fract_y
 _atom_site_fract_z
 _atom_site_occupancy
 _atom_site_pbe_bader_charge
 _atom_site_pbe_bader_spin_density
 _atom_site_pbe_cm5_charge
 _atom_site_pbe_ddec_charge
 _atom_site_pbe_ddec_spin_density
 _atom_site_pbe_ddec_sum_bond_order
 _atom_site_pbe_magmom
Co  Co0  1  0.47507771  0.50470796  0.85462153  1  1.252327  2.587857  0.676651  0.772483  2.841566  2.588576  2.564
Co  Co1  1  0.52492272  0.99528496  0.35461718  1  1.252098  2.587858  0.676654  0.772405  2.841566  2.588619  2.564
Co  Co2  1  0.52491655  0.49529027  0.14538181  1  1.252074  2.587863  0.676621  0.772333  2.841564  2.58887  2.564
Co  Co3  1  0.47507408  0.00471687  0.64537962  1  1.252173  2.587848  0.676596  0.77233  2.841541  2.588697  2.564
H  H4  1  0.27383353  0.43464251  0.96096309  1  0.053263  0.000296  0.10184  0.102423  7.8e-05  1.041568  0.0
H  H5  1  0.72617225  0.06534869  0.46096002  1  0.053251  0.000296  0.101811  0.102445  7.8e-05  1.041571  0.0
H  H6  1  0.72617777  0.56533942  0.03903825  1  0.052876  0.000296  0.101815  0.102491  7.8e-05  1.041558  0.0
H  H7  1  0.27382574  0.93464321  0.53903819  1  0.053323  0.000296  0.101827  0.102396  7.8e-05  1.041587  0.0
H  H8  1  0.32437846  0.55056427  0.00965589  1  0.084223  0.000724  0.1047  0.108654  0.000324  1.027872  0.0
H  H9  1  0.67562207  0.94942837  0.50965510  1  0.084127  0.000724  0.104715  0.108625  0.000324  1.027897  0.0
H  H10  1  0.67561040  0.44942586  0.99034887  1  0.083891  0.000724  0.10479  0.108695  0.000324  1.027858  0.0
H  H11  1  0.32436801  0.05057167  0.49034369  1  0.084109  0.000724  0.104709  0.108635  0.000324  1.027839  0.0
H  H12  1  0.48394397  0.60454968  0.06949706  1  0.111716  0.001643  0.116329  0.086722  0.000499  1.005927  0.001
H  H13  1  0.51605772  0.89545269  0.56949601  1  0.111668  0.001643  0.116304  0.086667  0.000499  1.006001  0.001
H  H14  1  0.51604411  0.39543504  0.93050969  1  0.111278  0.001643  0.116313  0.08665  0.000499  1.005963  0.001
H  H15  1  0.48394579  0.10455092  0.43050420  1  0.111718  0.001643  0.116314  0.086718  0.000499  1.005927  0.001
H  H16  1  0.18661554  0.30891381  0.12551058  1  0.112479  0.001248  0.114173  0.082842  0.000128  1.020182  0.001
H  H17  1  0.81338439  0.19109666  0.62550410  1  0.112804  0.001248  0.114154  0.082782  0.000128  1.020213  0.001
H  H18  1  0.81337638  0.69105827  0.87449190  1  0.112753  0.001248  0.114204  0.082911  0.000128  1.020225  0.001
H  H19  1  0.18662859  0.80890962  0.37449241  1  0.112695  0.001248  0.114139  0.082747  0.000128  1.020296  0.001
H  H20  1  0.01681497  0.23969795  0.06796228  1  0.086359  0.000907  0.11125  0.120168  0.000417  0.99791  0.0
H  H21  1  0.98318657  0.26030360  0.56795601  1  0.086313  0.000906  0.111246  0.120179  0.000417  0.997983  0.0
H  H22  1  0.98319215  0.76027589  0.93203793  1  0.086475  0.000906  0.111116  0.119882  0.000417  0.997978  0.0
H  H23  1  0.01682464  0.73969457  0.43204022  1  0.086299  0.000907  0.111248  0.120153  0.000417  0.997972  0.0
H  H24  1  0.83253912  0.25382201  0.02441297  1  0.064109  5.4e-05  0.103505  0.101172  2.8e-05  1.024667  0.0
H  H25  1  0.16747142  0.24618998  0.52440496  1  0.064567  5.4e-05  0.103494  0.101142  2.8e-05  1.024743  0.0
H  H26  1  0.16748046  0.74618245  0.97559378  1  0.064458  5.4e-05  0.103526  0.1012  2.8e-05  1.024699  0.0
H  H27  1  0.83253231  0.75381093  0.47558927  1  0.064351  5.4e-05  0.103459  0.101111  2.8e-05  1.024764  0.0
H  H28  1  0.83642426  0.24144569  0.90155590  1  0.105658  -3.5e-05  0.101453  0.102068  -0.000106  1.040249  0.0
H  H29  1  0.16358124  0.25852494  0.40154833  1  0.105224  -3.5e-05  0.101409  0.101906  -0.000106  1.04028  0.0
H  H30  1  0.16357088  0.75854171  0.09845000  1  0.10537  -3.5e-05  0.101456  0.101931  -0.000106  1.040372  0.0
H  H31  1  0.83641971  0.74144530  0.59844591  1  0.105407  -3.5e-05  0.101479  0.102052  -0.000106  1.040212  0.0
H  H32  1  0.56835431  0.23666756  0.01846552  1  0.03756  1.9e-05  0.104982  0.110891  4e-06  1.0042  0.0
H  H33  1  0.43166487  0.26334189  0.51845405  1  0.038058  1.9e-05  0.104917  0.110913  4e-06  1.004471  0.0
H  H34  1  0.43166560  0.76333780  0.98154664  1  0.037961  1.9e-05  0.104932  0.110954  4e-06  1.004489  0.0
H  H35  1  0.56834954  0.73666168  0.48153705  1  0.037561  1.9e-05  0.10496  0.110858  4e-06  1.004227  0.0
H  H36  1  0.26991918  0.12336663  0.01523783  1  0.071954  6e-06  0.110358  0.079142  -3e-06  0.97862  0.0
H  H37  1  0.73009571  0.37667089  0.51522628  1  0.072516  6e-06  0.110331  0.079121  -3e-06  0.978283  0.0
H  H38  1  0.73009976  0.87665587  0.98477262  1  0.072346  6e-06  0.110321  0.079125  -3e-06  0.978307  0.0
H  H39  1  0.26991641  0.62335614  0.48476340  1  0.071974  6e-06  0.110388  0.079165  -3e-06  0.978602  0.0
H  H40  1  0.33257980  0.98386746  0.90936336  1  0.057643  4.8e-05  0.104759  0.069394  2.6e-05  0.983956  0.0
H  H41  1  0.66739513  0.51614537  0.40934988  1  0.057253  4.8e-05  0.104762  0.069342  2.6e-05  0.983968  0.0
H  H42  1  0.66741744  0.01613887  0.09064823  1  0.057051  4.8e-05  0.10468  0.069233  2.6e-05  0.983934  0.0
H  H43  1  0.33256690  0.48386739  0.59064122  1  0.057409  4.8e-05  0.104746  0.069375  2.6e-05  0.983857  0.0
H  H44  1  0.63483896  0.08767481  0.90819504  1  0.049143  -2.9e-05  0.103466  0.111258  -4.3e-05  1.014087  0.0
H  H45  1  0.36514142  0.41232274  0.40818286  1  0.049271  -2.9e-05  0.103487  0.111283  -4.3e-05  1.014003  0.0
H  H46  1  0.36516037  0.91233062  0.09181655  1  0.04938  -2.9e-05  0.103478  0.111219  -4.3e-05  1.014105  0.0
H  H47  1  0.63482490  0.58768189  0.59181195  1  0.049389  -2.9e-05  0.103467  0.111194  -4.3e-05  1.014076  0.0
H  H48  1  0.52010591  0.91361545  0.83864345  1  0.084268  0.000605  0.104804  0.110526  0.000304  1.014791  0.0
H  H49  1  0.47990308  0.58638519  0.33863916  1  0.084562  0.000605  0.10482  0.110567  0.000304  1.014771  0.0
H  H50  1  0.47989682  0.08638275  0.16135704  1  0.084366  0.000605  0.104812  0.110528  0.000304  1.014841  0.0
H  H51  1  0.52012222  0.41361835  0.66135507  1  0.084544  0.000605  0.104767  0.110484  0.000304  1.014799  0.0
H  H52  1  0.89312976  0.27234046  0.81861359  1  0.133802  0.00087  0.109325  0.131692  0.000416  1.031691  0.0
H  H53  1  0.10687088  0.22765458  0.31861204  1  0.133801  0.00087  0.109345  0.13168  0.000416  1.031705  0.0
H  H54  1  0.10686108  0.72765507  0.18138605  1  0.133691  0.00087  0.109348  0.13173  0.000416  1.031661  0.0
H  H55  1  0.89313505  0.77234902  0.68138447  1  0.133747  0.00087  0.109364  0.131742  0.000416  1.031698  0.0
H  H56  1  0.78718185  0.44662869  0.83728624  1  0.134223  0.0021  0.11817  0.088127  0.000784  1.017998  0.001
H  H57  1  0.21281741  0.05336484  0.33728462  1  0.134204  0.0021  0.11816  0.088115  0.000784  1.017976  0.001
H  H58  1  0.21281109  0.55336593  0.16271368  1  0.134137  0.002101  0.118163  0.088128  0.000784  1.018016  0.001
H  H59  1  0.78718522  0.94663968  0.66271389  1  0.134115  0.0021  0.11816  0.08812  0.000784  1.018014  0.001
H  H60  1  0.29354513  0.24244572  0.83844599  1  0.153049  0.001544  0.117228  0.099487  0.000362  1.042547  0.001
H  H61  1  0.70645116  0.25754958  0.33844531  1  0.153071  0.001544  0.117257  0.099457  0.000362  1.042643  0.001
H  H62  1  0.70644517  0.75755162  0.16155393  1  0.15316  0.001544  0.117236  0.099492  0.000362  1.042505  0.001
H  H63  1  0.29354905  0.74245494  0.66155604  1  0.153112  0.001544  0.117233  0.099485  0.000362  1.04253  0.001
H  H64  1  0.37753699  0.05708690  0.81811866  1  0.087785  0.000933  0.104959  0.110104  0.000441  1.012256  0.0
H  H65  1  0.62246222  0.44291088  0.31812145  1  0.087557  0.000933  0.104973  0.11012  0.000441  1.012295  0.0
H  H66  1  0.62245210  0.94291045  0.18188098  1  0.08749  0.000933  0.104975  0.110105  0.000441  1.012321  0.0
H  H67  1  0.37754250  0.55709273  0.68187933  1  0.087591  0.000933  0.104945  0.110114  0.00044  1.012276  0.0
H  H68  1  0.90173160  0.14749398  0.76952388  1  0.055998  7.9e-05  0.103881  0.10162  -1.4e-05  1.030876  0.0
H  H69  1  0.09824718  0.35250366  0.26952811  1  0.055945  7.9e-05  0.103851  0.101644  -1.4e-05  1.030761  0.0
H  H70  1  0.09825000  0.85250609  0.23047149  1  0.055979  7.9e-05  0.103857  0.101638  -1.4e-05  1.030826  0.0
H  H71  1  0.90173642  0.64750182  0.73047494  1  0.05583  7.9e-05  0.103921  0.101756  -1.3e-05  1.030752  0.0
H  H72  1  0.87434054  0.76898361  0.77853474  1  0.075386  0.000576  0.099919  0.098256  0.000302  1.053413  0.0
H  H73  1  0.12565089  0.73101547  0.27853462  1  0.075045  0.000576  0.09991  0.098287  0.000302  1.053411  0.0
H  H74  1  0.12566726  0.23102179  0.22146519  1  0.075333  0.000576  0.099904  0.098246  0.000302  1.053379  0.0
H  H75  1  0.87437772  0.26899707  0.72146246  1  0.075352  0.000576  0.099935  0.098399  0.000302  1.053338  0.0
H  H76  1  0.95684780  0.09248672  0.70539532  1  0.07643  0.000926  0.105867  0.117493  0.00041  1.032086  0.0
H  H77  1  0.04313453  0.40751755  0.20540013  1  0.076768  0.000927  0.105846  0.117525  0.00041  1.032001  0.0
H  H78  1  0.04313931  0.90751514  0.29459835  1  0.076668  0.000927  0.105865  0.117544  0.00041  1.032023  0.0
H  H79  1  0.95685699  0.59248971  0.79460236  1  0.076542  0.000927  0.105904  0.117583  0.00041  1.032014  0.0
H  H80  1  0.19168839  0.10407934  0.65919179  1  0.113014  0.001896  0.12055  0.095151  0.00059  0.983781  0.001
H  H81  1  0.80829752  0.39592735  0.15919497  1  0.113224  0.001897  0.120573  0.095128  0.000591  0.983884  0.001
H  H82  1  0.80831073  0.89592879  0.34080444  1  0.113235  0.001897  0.120574  0.095125  0.000591  0.983887  0.001
H  H83  1  0.19168112  0.60407454  0.84081036  1  0.113032  0.001896  0.120614  0.095164  0.000591  0.983806  0.001
H  H84  1  0.40526483  0.89002054  0.72704590  1  0.098474  0.001986  0.118811  0.087871  0.000466  0.994281  0.001
H  H85  1  0.59472068  0.60998838  0.22704592  1  0.098815  0.001987  0.118802  0.087775  0.000466  0.994376  0.001
H  H86  1  0.59473318  0.10999120  0.27295232  1  0.098387  0.001987  0.11878  0.087777  0.000466  0.994362  0.001
H  H87  1  0.40527337  0.39002247  0.77295941  1  0.099279  0.001986  0.118835  0.087871  0.000466  0.994382  0.001
H  H88  1  0.17810529  0.86495936  0.77542336  1  0.063122  0.00113  0.105821  0.112336  0.0005  1.0038  0.0
H  H89  1  0.82187391  0.63504617  0.27542526  1  0.062983  0.00113  0.105808  0.112363  0.0005  1.003694  0.0
H  H90  1  0.82188326  0.13504971  0.22457258  1  0.062904  0.00113  0.105801  0.112375  0.0005  1.003722  0.0
H  H91  1  0.17813269  0.36496915  0.72457837  1  0.063218  0.00113  0.10573  0.112252  0.0005  1.003737  0.0
C  C92  1  0.15626168  0.36646281  0.89089367  1  1.5617  0.002469  0.207881  0.571029  0.001758  4.203852  0.0
C  C93  1  0.84373373  0.13352715  0.39088934  1  1.560512  0.002469  0.207781  0.57087  0.001758  4.204102  0.0
C  C94  1  0.84372466  0.63353364  0.10910825  1  1.561054  0.002469  0.207851  0.571021  0.001758  4.203865  0.0
C  C95  1  0.15626129  0.86645665  0.60910803  1  1.561777  0.002468  0.207849  0.570929  0.001757  4.204022  0.0
C  C96  1  0.06303290  0.33991246  0.92813333  1  -0.078314  0.006148  -0.017379  -0.017831  0.00328  3.97947  0.004
C  C97  1  0.93697118  0.16007262  0.42812844  1  -0.078782  0.006148  -0.017138  -0.017395  0.00328  3.978978  0.004
C  C98  1  0.93697049  0.66007762  0.07187057  1  -0.078706  0.006147  -0.0172  -0.017558  0.00328  3.979263  0.004
C  C99  1  0.06302956  0.83991025  0.57186807  1  -0.078283  0.006149  -0.017346  -0.017673  0.003281  3.979353  0.004
C  C100  1  0.14424101  0.38089540  0.96224568  1  0.033762  -0.000327  -0.080006  -0.13086  -0.000481  3.923898  0.0
C  C101  1  0.85576556  0.11909125  0.46224113  1  0.034157  -0.000328  -0.080095  -0.131004  -0.000483  3.923823  0.0
C  C102  1  0.85577250  0.61908924  0.03775681  1  0.034487  -0.000327  -0.080047  -0.131072  -0.000482  3.924044  0.0
C  C103  1  0.14423618  0.88089432  0.53775595  1  0.033761  -0.000328  -0.079993  -0.130865  -0.000483  3.923997  0.0
C  C104  1  0.06334713  0.34941853  0.99725198  1  -0.036241  0.000381  -0.007958  0.058677  -5e-05  4.015103  0.001
C  C105  1  0.93666150  0.15057508  0.49724713  1  -0.036833  0.000381  -0.007941  0.058515  -5e-05  4.015171  0.001
C  C106  1  0.93666683  0.65057062  0.00275079  1  -0.036726  0.000381  -0.007951  0.058611  -5e-05  4.015095  0.001
C  C107  1  0.06333892  0.84941682  0.50274938  1  -0.036712  0.000381  -0.007894  0.058597  -5e-05  4.015258  0.001
C  C108  1  0.15600851  0.38824590  0.03288665  1  0.021036  -0.00865  0.011776  0.114897  -0.00904  3.98134  -0.006
C  C109  1  0.84399977  0.11174958  0.53288192  1  0.020917  -0.008653  0.011835  0.115088  -0.009044  3.980998  -0.006
C  C110  1  0.84400004  0.61173515  0.96711726  1  0.021193  -0.008652  0.011825  0.115004  -0.009043  3.98108  -0.006
C  C111  1  0.15600528  0.88824500  0.46711516  1  0.020952  -0.008653  0.011796  0.115014  -0.009043  3.981254  -0.006
C  C112  1  0.29020122  0.49246637  0.03441149  1  -0.030072  0.003935  -0.085797  -0.178878  0.001813  3.954818  0.003
C  C113  1  0.70979982  0.00752908  0.53440898  1  -0.029675  0.003935  -0.085926  -0.179018  0.001813  3.954745  0.003
C  C114  1  0.70979359  0.50752013  0.96559356  1  -0.029481  0.003936  -0.085928  -0.179064  0.001814  3.954651  0.003
C  C115  1  0.29019566  0.99246914  0.46558924  1  -0.029558  0.003936  -0.085881  -0.178989  0.001813  3.954764  0.003
C  C116  1  0.37967285  0.52399253  0.06791728  1  0.478785  -0.005879  0.04335  0.098261  -0.006449  3.955607  -0.004
C  C117  1  0.62032971  0.97600899  0.56791548  1  0.478607  -0.005882  0.043407  0.098429  -0.006451  3.955512  -0.004
C  C118  1  0.62031975  0.47599128  0.93208805  1  0.478723  -0.005881  0.043449  0.098445  -0.006449  3.954994  -0.004
C  C119  1  0.37967281  0.02399191  0.43208331  1  0.478543  -0.005882  0.043397  0.098303  -0.006451  3.955577  -0.004
C  C120  1  0.21430095  0.35979919  0.09912648  1  0.467026  -0.005083  0.041388  0.095052  -0.005631  3.965799  -0.003
C  C121  1  0.78569975  0.14020494  0.59912129  1  0.46735  -0.005085  0.041479  0.095373  -0.005633  3.965723  -0.003
C  C122  1  0.78569594  0.64017648  0.90087686  1  0.467146  -0.005086  0.041322  0.094909  -0.005633  3.966315  -0.003
C  C123  1  0.21430882  0.85979595  0.40087608  1  0.467126  -0.005084  0.041436  0.095226  -0.005632  3.965875  -0.003
C  C124  1  0.11794763  0.32235139  0.06683126  1  -0.088761  0.004957  -0.084894  -0.180306  0.002346  3.948501  0.004
C  C125  1  0.88205302  0.17765110  0.56682633  1  -0.088855  0.004958  -0.084875  -0.180475  0.002346  3.948589  0.004
C  C126  1  0.88205322  0.67762517  0.93317151  1  -0.08866  0.004957  -0.08481  -0.180034  0.002345  3.948422  0.004
C  C127  1  0.11795368  0.82234799  0.43317018  1  -0.088858  0.004957  -0.084903  -0.180371  0.002346  3.948546  0.004
C  C128  1  0.89659131  0.27906212  0.99735587  1  -0.040176  -0.000675  -0.076327  -0.154227  -0.000701  3.907268  0.0
C  C129  1  0.10341688  0.22093689  0.49734922  1  -0.039814  -0.000676  -0.076253  -0.154053  -0.000702  3.907239  0.0
C  C130  1  0.10342496  0.72093333  0.00264946  1  -0.039763  -0.000676  -0.076258  -0.154046  -0.000702  3.907207  0.0
C  C131  1  0.89658508  0.77905590  0.50264644  1  -0.039809  -0.000677  -0.07628  -0.153996  -0.000703  3.907251  0.0
C  C132  1  0.81052260  0.24064732  0.96325889  1  -0.021952  0.00087  -0.006201  0.061984  0.000403  4.002887  0.001
C  C133  1  0.18948486  0.25934832  0.46325134  1  -0.021423  0.00087  -0.006326  0.061817  0.000403  4.002912  0.001
C  C134  1  0.18948619  0.75935086  0.03674730  1  -0.022002  0.00087  -0.006301  0.061691  0.000403  4.002884  0.001
C  C135  1  0.81051589  0.74064448  0.53674404  1  -0.022314  0.000871  -0.006346  0.061585  0.000403  4.003047  0.001
C  C136  1  0.89703441  0.27027145  0.92873881  1  0.017538  -0.000305  -0.075694  -0.126005  -0.000692  3.91175  0.0
C  C137  1  0.10297077  0.22971001  0.42873156  1  0.017504  -0.000306  -0.075699  -0.125908  -0.000694  3.911556  0.0
C  C138  1  0.10296931  0.72971953  0.07126681  1  0.01764  -0.000306  -0.075765  -0.125918  -0.000693  3.911672  0.0
C  C139  1  0.89702952  0.77026836  0.57126353  1  0.017566  -0.000306  -0.075666  -0.125896  -0.000694  3.911728  0.0
C  C140  1  0.63137598  0.17321967  0.96334198  1  -0.017675  9.4e-05  0.007044  0.104777  4.5e-05  3.989968  0.0
C  C141  1  0.36862620  0.32678139  0.46333069  1  -0.018444  9.4e-05  0.007034  0.105027  4.5e-05  3.989367  0.0
C  C142  1  0.36863050  0.82678213  0.03666875  1  -0.018044  9.4e-05  0.007093  0.105206  4.5e-05  3.989285  0.0
C  C143  1  0.63136905  0.67321954  0.53666241  1  -0.017597  9.4e-05  0.007042  0.104994  4.5e-05  3.989873  0.0
C  C144  1  0.52306870  0.18097922  0.99356735  1  -0.076182  0.000171  -0.089713  -0.186711  9.5e-05  3.952688  0.0
C  C145  1  0.47693924  0.31903254  0.49355649  1  -0.075712  0.000171  -0.089623  -0.187089  9.5e-05  3.952696  0.0
C  C146  1  0.47694185  0.81902707  0.00644367  1  -0.075557  0.000171  -0.089654  -0.187098  9.5e-05  3.952594  0.0
C  C147  1  0.52306350  0.68097558  0.50643604  1  -0.075927  0.000171  -0.089639  -0.186752  9.5e-05  3.952572  0.0
C  C148  1  0.35436753  0.11747569  0.99175079  1  0.553728  -9e-06  0.038607  0.095675  -2.2e-05  4.015425  0.0
C  C149  1  0.64563811  0.38254967  0.49173762  1  0.55419  -9e-06  0.038493  0.095875  -2.2e-05  4.015241  0.0
C  C150  1  0.64564480  0.88253871  0.00826194  1  0.554088  -9e-06  0.038492  0.095771  -2.2e-05  4.015187  0.0
C  C151  1  0.35436223  0.61746838  0.50825206  1  0.553805  -9e-06  0.038564  0.095721  -2.2e-05  4.015463  0.0
C  C152  1  0.38897270  0.04072045  0.93336076  1  0.521085  -4.9e-05  0.033619  0.084062  -5.4e-05  4.049873  0.0
C  C153  1  0.61101505  0.45929247  0.43334669  1  0.521294  -4.9e-05  0.033463  0.084125  -5.4e-05  4.049701  0.0
C  C154  1  0.61103059  0.95928586  0.06665140  1  0.521425  -4.9e-05  0.033605  0.084353  -5.4e-05  4.049365  0.0
C  C155  1  0.38896184  0.54072115  0.56664356  1  0.521094  -4.9e-05  0.033638  0.084156  -5.4e-05  4.049582  0.0
C  C156  1  0.55913635  0.09995439  0.93254592  1  -0.036096  9.8e-05  -0.091352  -0.187406  3.3e-05  3.961104  0.0
C  C157  1  0.44085590  0.40004773  0.43253330  1  -0.036799  9.8e-05  -0.091415  -0.18755  3.3e-05  3.961037  0.0
C  C158  1  0.44086805  0.90004832  0.06746539  1  -0.03681  9.8e-05  -0.091439  -0.187594  3.3e-05  3.960982  0.0
C  C159  1  0.55912593  0.59995956  0.56745923  1  -0.036277  9.8e-05  -0.091404  -0.187468  3.3e-05  3.96109  0.0
C  C160  1  0.61361512  0.70903035  0.82607665  1  1.531036  -0.00442  0.187186  0.534717  -0.00537  4.241054  -0.005
C  C161  1  0.38639465  0.79096980  0.32606978  1  1.53124  -0.004421  0.187327  0.534803  -0.005372  4.240875  -0.005
C  C162  1  0.38639918  0.29096962  0.17392498  1  1.531326  -0.00442  0.187122  0.534552  -0.005369  4.241244  -0.005
C  C163  1  0.61363494  0.20903552  0.67392616  1  1.53097  -0.004419  0.187286  0.534716  -0.00537  4.241258  -0.005
C  C164  1  0.69007913  0.83065890  0.80982145  1  0.002101  0.003607  -0.019607  -0.015469  0.001791  4.01289  0.003
C  C165  1  0.30992413  0.66934091  0.30981865  1  0.002166  0.003607  -0.019551  -0.01537  0.00179  4.012763  0.003
C  C166  1  0.30992823  0.16934199  0.19017791  1  0.002031  0.003608  -0.019566  -0.015344  0.001791  4.012781  0.003
C  C167  1  0.69009765  0.33066625  0.69017730  1  0.002077  0.003607  -0.019735  -0.015572  0.00179  4.013125  0.003
C  C168  1  0.62630968  0.92839088  0.81915192  1  -0.07827  -0.005182  -0.078429  -0.138725  -0.005485  3.918028  -0.003
C  C169  1  0.37369365  0.57160861  0.31914842  1  -0.07851  -0.005182  -0.078454  -0.13885  -0.005485  3.918195  -0.003
C  C170  1  0.37369206  0.07160461  0.18084801  1  -0.07831  -0.005183  -0.078437  -0.138791  -0.005487  3.918094  -0.003
C  C171  1  0.62632813  0.42839854  0.68084696  1  -0.077871  -0.00518  -0.07831  -0.138658  -0.005483  3.918013  -0.003
C  C172  1  0.70262978  0.04340571  0.80487479  1  0.042135  0.001819  -0.005044  0.068659  0.000517  4.011689  0.002
C  C173  1  0.29736481  0.45659341  0.30487459  1  0.041616  0.001819  -0.005076  0.068685  0.000517  4.011723  0.002
C  C174  1  0.29736261  0.95659072  0.19512343  1  0.041603  0.00182  -0.005036  0.068687  0.000517  4.011604  0.002
C  C175  1  0.70264300  0.54341199  0.69512391  1  0.041368  0.001819  -0.005026  0.068832  0.000517  4.011728  0.002
C  C176  1  0.64334067  0.14877345  0.81591684  1  -0.116939  -0.012396  0.010439  0.109617  -0.012905  3.98953  -0.008
C  C177  1  0.35665665  0.35122260  0.31591682  1  -0.116128  -0.012395  0.010396  0.109608  -0.012903  3.989466  -0.008
C  C178  1  0.35665018  0.85122209  0.18408223  1  -0.116198  -0.012402  0.010388  0.109499  -0.01291  3.989555  -0.008
C  C179  1  0.64334983  0.64877919  0.68408197  1  -0.116087  -0.012384  0.010393  0.109547  -0.012892  3.989484  -0.008
C  C180  1  0.75847239  0.26128287  0.82107793  1  0.017151  0.006188  -0.08353  -0.176478  0.002812  3.937398  0.005
C  C181  1  0.24152497  0.23871301  0.32107678  1  0.0173  0.006187  -0.083452  -0.176405  0.002811  3.937425  0.005
C  C182  1  0.24151912  0.73871447  0.17892171  1  0.017098  0.006189  -0.083451  -0.176454  0.002812  3.937344  0.005
C  C183  1  0.75847821  0.76128970  0.67892115  1  0.017107  0.006185  -0.083549  -0.176614  0.002811  3.937446  0.005
C  C184  1  0.70090607  0.35871858  0.83240963  1  0.431655  -0.00678  0.046114  0.098454  -0.00713  3.946029  -0.004
C  C185  1  0.29909447  0.14127872  0.33240862  1  0.431311  -0.00678  0.046088  0.098478  -0.00713  3.946021  -0.004
C  C186  1  0.29908698  0.64127965  0.16759030  1  0.43202  -0.006788  0.046053  0.098385  -0.007135  3.946033  -0.004
C  C187  1  0.70091003  0.85872760  0.66759045  1  0.431885  -0.006775  0.046111  0.098671  -0.007123  3.945995  -0.004
C  C188  1  0.42471429  0.24356371  0.83339209  1  0.461882  -0.00704  0.042391  0.0829  -0.007819  3.943582  -0.004
C  C189  1  0.57528714  0.25643264  0.33339182  1  0.461836  -0.007038  0.042419  0.083101  -0.007817  3.943526  -0.004
C  C190  1  0.57527843  0.75643362  0.16660784  1  0.461868  -0.007044  0.04239  0.082832  -0.007823  3.943482  -0.004
C  C191  1  0.42471824  0.74357276  0.66660896  1  0.461903  -0.007032  0.042474  0.083062  -0.00781  3.943305  -0.004
C  C192  1  0.47311218  0.14148366  0.82239896  1  -0.018318  0.006731  -0.086467  -0.179799  0.003102  3.961261  0.005
C  C193  1  0.52688520  0.35851217  0.32240025  1  -0.018456  0.00673  -0.086536  -0.179962  0.003102  3.961469  0.005
C  C194  1  0.52687900  0.85851277  0.17760011  1  -0.01836  0.006731  -0.086479  -0.179716  0.003102  3.961368  0.005
C  C195  1  0.47312040  0.64149053  0.67759996  1  -0.018359  0.006728  -0.086528  -0.179931  0.003101  3.96132  0.005
C  C196  1  0.84158100  0.05830325  0.78068010  1  0.000224  -0.006903  -0.072964  -0.139538  -0.0072  3.887906  -0.004
C  C197  1  0.15840634  0.44169400  0.28068264  1  0.000536  -0.006903  -0.072903  -0.139563  -0.0072  3.887955  -0.004
C  C198  1  0.15840599  0.94169500  0.21931642  1  0.000547  -0.006904  -0.072889  -0.139481  -0.007201  3.887845  -0.004
C  C199  1  0.84159277  0.55831414  0.71931757  1  0.000159  -0.0069  -0.072942  -0.139701  -0.007197  3.888189  -0.004
C  C200  1  0.90539777  0.96089846  0.77088031  1  -0.049976  0.001785  -0.008804  0.061673  0.000522  4.031778  0.002
C  C201  1  0.09458535  0.53909819  0.27088343  1  -0.049389  0.001785  -0.008873  0.061633  0.000522  4.031911  0.002
C  C202  1  0.09458956  0.03910069  0.22911535  1  -0.049666  0.001785  -0.008927  0.061462  0.000522  4.032078  0.002
C  C203  1  0.90542235  0.46091352  0.72911678  1  -0.049791  0.001784  -0.008889  0.061657  0.000522  4.031999  0.002
C  C204  1  0.82912382  0.84708747  0.78586574  1  -0.012566  -0.004975  -0.081376  -0.14127  -0.005278  3.936586  -0.003
C  C205  1  0.17087109  0.65291406  0.28586568  1  -0.012497  -0.004976  -0.081397  -0.141401  -0.005279  3.936547  -0.003
C  C206  1  0.17087881  0.15291704  0.21413248  1  -0.012546  -0.004977  -0.081345  -0.141192  -0.00528  3.936408  -0.003
C  C207  1  0.82915146  0.34709851  0.71413112  1  -0.012224  -0.004973  -0.081316  -0.14141  -0.005276  3.936729  -0.003
C  C208  1  0.04717452  0.97658726  0.74432420  1  -0.030659  -0.011485  0.010228  0.113581  -0.011903  3.999183  -0.007
C  C209  1  0.95280024  0.52341121  0.24432837  1  -0.031169  -0.011483  0.010247  0.113714  -0.011901  3.999488  -0.007
C  C210  1  0.95280918  0.02341191  0.25567089  1  -0.03104  -0.011484  0.010336  0.113778  -0.011902  3.999441  -0.007
C  C211  1  0.04719899  0.47660053  0.75567468  1  -0.030836  -0.011486  0.010289  0.113676  -0.011904  3.99915  -0.007
C  C212  1  0.05539148  0.04754402  0.71152543  1  -0.00088  0.00559  -0.086146  -0.18424  0.002601  3.942707  0.004
C  C213  1  0.94458660  0.45245825  0.21152941  1  -0.002133  0.005592  -0.086294  -0.184528  0.002601  3.943081  0.004
C  C214  1  0.94459684  0.95245783  0.28846909  1  -0.002252  0.005592  -0.08632  -0.184533  0.002601  3.94309  0.004
C  C215  1  0.05540283  0.54754991  0.78847364  1  -0.000396  0.005591  -0.086291  -0.184554  0.002601  3.942905  0.004
C  C216  1  0.18395846  0.05321801  0.68560351  1  0.457603  -0.007892  0.047061  0.103802  -0.008245  3.946069  -0.005
C  C217  1  0.81602425  0.44678511  0.18560679  1  0.458903  -0.00789  0.047172  0.103938  -0.008241  3.946449  -0.005
C  C218  1  0.81603482  0.94678743  0.31439244  1  0.459076  -0.007894  0.047171  0.103893  -0.008245  3.946272  -0.005
C  C219  1  0.18396144  0.55321946  0.81439769  1  0.457004  -0.007893  0.047029  0.103898  -0.008246  3.946035  -0.005
C  C220  1  0.30240307  0.93216134  0.72303051  1  0.485157  -0.006979  0.048171  0.100958  -0.007668  3.962284  -0.005
C  C221  1  0.69757954  0.56784322  0.22303195  1  0.484637  -0.006977  0.048232  0.101158  -0.007668  3.962393  -0.005
C  C222  1  0.69758966  0.06784591  0.27696657  1  0.48512  -0.006976  0.048297  0.10112  -0.007667  3.962359  -0.005
C  C223  1  0.30241594  0.43216493  0.77697224  1  0.484261  -0.006979  0.048146  0.100936  -0.007669  3.962483  -0.005
C  C224  1  0.17574421  0.91893439  0.74999346  1  -0.035304  0.005337  -0.089305  -0.191376  0.002521  3.967152  0.004
C  C225  1  0.82423279  0.58106658  0.24999642  1  -0.035312  0.005336  -0.089155  -0.191303  0.002521  3.966958  0.004
C  C226  1  0.82424147  0.08107018  0.25000248  1  -0.035249  0.005337  -0.089296  -0.191478  0.002522  3.966907  0.004
C  C227  1  0.17576886  0.41894515  0.75000749  1  -0.035593  0.005336  -0.089155  -0.19117  0.002521  3.966911  0.004
N  N228  1  0.34591915  0.45802175  0.10004646  1  -1.220254  0.051526  -0.325775  -0.247606  0.02781  3.557902  0.045
N  N229  1  0.65407892  0.04198506  0.60004320  1  -1.220368  0.051512  -0.325834  -0.247828  0.027803  3.557703  0.045
N  N230  1  0.65407092  0.54195846  0.89995801  1  -1.220575  0.051522  -0.325772  -0.247596  0.027807  3.558008  0.045
N  N231  1  0.34592668  0.95801764  0.39995502  1  -1.220283  0.051516  -0.325764  -0.247618  0.027806  3.557799  0.045
N  N232  1  0.28546101  0.04779338  0.96224439  1  -1.195558  0.000115  -0.338091  -0.28942  6e-05  3.30417  0.0
N  N233  1  0.71453382  0.45223390  0.46222961  1  -1.196338  0.000115  -0.337744  -0.289361  6e-05  3.304181  0.0
N  N234  1  0.71454626  0.95222375  0.03776891  1  -1.196223  0.000115  -0.337817  -0.289418  6e-05  3.304085  0.0
N  N235  1  0.28545023  0.54778601  0.53775865  1  -1.195574  0.000115  -0.338063  -0.289473  6e-05  3.30425  0.0
N  N236  1  0.53713564  0.35123273  0.83836001  1  -1.252625  0.070974  -0.3382  -0.252684  0.038555  3.627121  0.056
N  N237  1  0.46286770  0.14876525  0.33835831  1  -1.25255  0.070975  -0.338206  -0.252737  0.038553  3.627087  0.056
N  N238  1  0.46285862  0.64876549  0.16163935  1  -1.252917  0.070976  -0.338215  -0.252568  0.038553  3.627018  0.056
N  N239  1  0.53713680  0.85124106  0.66164161  1  -1.253063  0.070975  -0.338172  -0.25279  0.038553  3.62698  0.056
N  N240  1  0.30512301  0.99559204  0.69080715  1  -1.198154  0.05707  -0.323321  -0.23575  0.030002  3.601465  0.053
N  N241  1  0.69486539  0.50441357  0.19080967  1  -1.198502  0.057072  -0.323434  -0.235906  0.030006  3.602011  0.053
N  N242  1  0.69487610  0.00441609  0.30918908  1  -1.198591  0.057074  -0.323465  -0.235778  0.030005  3.601791  0.053
N  N243  1  0.30512547  0.49559188  0.80919566  1  -1.198455  0.057076  -0.323404  -0.235914  0.030005  3.601516  0.053
O  O244  1  0.29616688  0.45067413  0.89300349  1  -1.142597  0.100121  -0.331833  -0.566704  0.05198  2.376836  0.081
O  O245  1  0.70383130  0.04931666  0.39299818  1  -1.142052  0.10011  -0.331836  -0.566792  0.051976  2.376921  0.081
O  O246  1  0.70382166  0.54932502  0.10699871  1  -1.142113  0.100106  -0.331866  -0.566817  0.051975  2.376809  0.081
O  O247  1  0.29615921  0.95066806  0.60700004  1  -1.142476  0.100111  -0.331759  -0.566639  0.051976  2.377017  0.081
O  O248  1  0.09835524  0.30676322  0.86203195  1  -1.173334  0.017309  -0.314903  -0.539795  0.00821  2.165614  0.015
O  O249  1  0.90163312  0.19324215  0.36202860  1  -1.172896  0.017311  -0.31485  -0.539724  0.008211  2.165699  0.015
O  O250  1  0.90162769  0.69324046  0.13796883  1  -1.173371  0.01731  -0.314903  -0.53978  0.00821  2.165598  0.015
O  O251  1  0.09835486  0.80674888  0.63796848  1  -1.173608  0.017309  -0.315006  -0.539875  0.00821  2.16574  0.015
O  O252  1  0.49723615  0.69659502  0.85086085  1  -1.127481  0.075973  -0.318358  -0.538308  0.039726  2.204148  0.064
O  O253  1  0.50277724  0.80340700  0.35085379  1  -1.12762  0.075978  -0.318483  -0.538332  0.03973  2.204253  0.064
O  O254  1  0.50277593  0.30340224  0.14914050  1  -1.127526  0.075962  -0.318266  -0.538176  0.039721  2.204144  0.064
O  O255  1  0.49723893  0.19659477  0.64914557  1  -1.127453  0.075991  -0.318494  -0.538366  0.039736  2.20459  0.064
O  O256  1  0.66861711  0.61975305  0.81567784  1  -1.167019  0.066388  -0.320549  -0.559148  0.034678  2.207747  0.056
O  O257  1  0.33138740  0.88024656  0.31567256  1  -1.166974  0.066391  -0.320573  -0.559145  0.034678  2.207682  0.056
O  O258  1  0.33139685  0.38024602  0.18432408  1  -1.167129  0.066403  -0.320563  -0.559053  0.034685  2.207767  0.056
O  O259  1  0.66864440  0.11976147  0.68432452  1  -1.166769  0.066374  -0.320521  -0.559034  0.034669  2.207584  0.056
