# generated using pymatgen
data_NaH7(C2O3)2
_symmetry_space_group_name_H-M   'P 1'
_cell_length_a   5.87706656
_cell_length_b   6.25315311
_cell_length_c   9.92091737
_cell_angle_alpha   89.99780014
_cell_angle_beta   106.65494323
_cell_angle_gamma   90.00030759
_symmetry_Int_Tables_number   1
_chemical_formula_structural   NaH7(C2O3)2
_chemical_formula_sum   'Na2 H14 C8 O12'
_cell_volume   349.30021506
_cell_formula_units_Z   2
loop_
 _symmetry_equiv_pos_site_id
 _symmetry_equiv_pos_as_xyz
  1  'x, y, z'
loop_
 _atom_site_type_symbol
 _atom_site_label
 _atom_site_symmetry_multiplicity
 _atom_site_fract_x
 _atom_site_fract_y
 _atom_site_fract_z
 _atom_site_occupancy
 _atom_site_hle17_bader_spin_density
 _atom_site_hle17_ddec_charge
 _atom_site_hle17_ddec_spin_density
 _atom_site_hle17_ddec_sum_bond_order
 _atom_site_hle17_magmom
 _atom_site_hse06_10hf_bader_spin_density
 _atom_site_hse06_10hf_ddec_charge
 _atom_site_hse06_10hf_ddec_spin_density
 _atom_site_hse06_10hf_ddec_sum_bond_order
 _atom_site_hse06_10hf_magmom
 _atom_site_hse06_bader_spin_density
 _atom_site_hse06_ddec_charge
 _atom_site_hse06_ddec_spin_density
 _atom_site_hse06_ddec_sum_bond_order
 _atom_site_hse06_magmom
 _atom_site_pbe_bader_spin_density
 _atom_site_pbe_cm5_charge
 _atom_site_pbe_ddec_charge
 _atom_site_pbe_ddec_spin_density
 _atom_site_pbe_ddec_sum_bond_order
 _atom_site_pbe_magmom
Na  Na0  1  0.99999852  0.99999911  0.99999944  1  0  0.893758  0  0.391552  0  0  0.851338  0  0.545152  0  0  0.860664  0  0.523451  0  0  0.661888  0.84435  0  0.560835  0
Na  Na1  1  0.99999807  0.49999856  0.99999961  1  0  0.893781  0  0.391512  0  0  0.85135  0  0.545121  0  0  0.860671  0  0.523418  0  0  0.661883  0.844378  0  0.56078  0
H  H2  1  0.59519798  0.24999678  0.46158597  1  0  0.383408  0  0.940333  0  0  0.349417  0  1.019774  0  0  0.361934  0  1.003006  0  0  0.294309  0.340692  0  1.030135  0
H  H3  1  0.40480096  0.75000233  0.53840850  1  0  0.383422  0  0.94041  0  0  0.349409  0  1.019803  0  0  0.361927  0  1.003034  0  0  0.294314  0.340683  0  1.03023  0
H  H4  1  0.98627681  0.24997459  0.27877022  1  0  0.131049  0  0.943863  0  0  0.137432  0  1.007343  0  0  0.141951  0  1.004261  0  0  0.123178  0.134096  0  1.009926  0
H  H5  1  0.01371588  0.75003092  0.72123413  1  0  0.131047  0  0.943853  0  0  0.137422  0  1.007346  0  0  0.14194  0  1.004265  0  0  0.123167  0.134085  0  1.00993  0
H  H6  1  0.01365894  0.24998312  0.51756703  1  0  0.123513  0  0.944226  0  0  0.134493  0  1.000726  0  0  0.137818  0  0.999958  0  0  0.113943  0.132143  0  1.001307  0
H  H7  1  0.98634617  0.75001918  0.48243976  1  0  0.123531  0  0.944216  0  0  0.134502  0  1.000733  0  0  0.137823  0  0.999973  0  0  0.113977  0.132152  0  1.001313  0
H  H8  1  0.11979197  0.25000584  0.78315862  1  0  0.424018  0  0.886323  0  0  0.392669  0  0.950513  0  0  0.403542  0  0.934629  0  0  0.286625  0.384888  0  0.961859  0
H  H9  1  0.88021541  0.74999167  0.21684256  1  0  0.424002  0  0.886325  0  0  0.39265  0  0.95052  0  0  0.403523  0  0.934633  0  0  0.286602  0.384868  0  0.961866  0
H  H10  1  0.83886707  0.25001100  0.74302378  1  0  0.417657  0  0.893846  0  0  0.385413  0  0.960561  0  0  0.396162  0  0.944837  0  0  0.283671  0.377745  0  0.971736  0
H  H11  1  0.16113703  0.74998811  0.25697372  1  0  0.417637  0  0.89387  0  0  0.385394  0  0.960587  0  0  0.396147  0  0.944854  0  0  0.283675  0.377726  0  0.971761  0
H  H12  1  0.56627514  0.24998474  0.06896605  1  0  0.427025  0  0.861868  0  0  0.399768  0  0.919466  0  0  0.410377  0  0.903547  0  0  0.298433  0.392349  0  0.930587  0
H  H13  1  0.43372515  0.75001277  0.93103374  1  0  0.427007  0  0.861894  0  0  0.39975  0  0.919492  0  0  0.410357  0  0.903577  0  0  0.29843  0.39233  0  0.930614  0
H  H14  1  0.57370631  0.24999365  0.91323521  1  0  0.421867  0  0.876753  0  0  0.391881  0  0.93917  0  0  0.40267  0  0.923228  0  0  0.295067  0.38432  0  0.950353  0
H  H15  1  0.42629575  0.75000226  0.08676492  1  0  0.421857  0  0.876761  0  0  0.391873  0  0.939175  0  0  0.402663  0  0.923232  0  0  0.295066  0.384312  0  0.950358  0
C  C16  1  0.16489044  0.24998449  0.35199882  1  0  -0.175788  0  3.627977  0  0  -0.196677  0  3.892838  0  0  -0.201384  0  3.90462  0  0  -0.069037  -0.193771  0  3.885321  0
C  C17  1  0.83510596  0.75001782  0.64800424  1  0  -0.175703  0  3.627979  0  0  -0.196568  0  3.892868  0  0  -0.201273  0  3.904649  0  0  -0.068955  -0.193664  0  3.885353  0
C  C18  1  0.18080311  0.24998883  0.49047332  1  0  -0.15072  0  3.603522  0  0  -0.173277  0  3.867407  0  0  -0.178013  0  3.881084  0  0  -0.07236  -0.170197  0  3.858304  0
C  C19  1  0.81919862  0.75001347  0.50953079  1  0  -0.150907  0  3.603592  0  0  -0.173434  0  3.867535  0  0  -0.178172  0  3.881211  0  0  -0.07247  -0.170354  0  3.858433  0
C  C20  1  0.35322344  0.24998728  0.27804227  1  0  0.706351  0  3.813939  0  0  0.656363  0  4.115505  0  0  0.690962  0  4.10412  0  0  0.235351  0.63285  0  4.122833  0
C  C21  1  0.64676790  0.75001183  0.72195676  1  0  0.706532  0  3.813808  0  0  0.656433  0  4.115508  0  0  0.691032  0  4.104121  0  0  0.235351  0.63292  0  4.122836  0
C  C22  1  0.39430085  0.25000039  0.61598329  1  0  0.691702  0  3.868601  0  0  0.632906  0  4.177967  0  0  0.667147  0  4.169176  0  0  0.219282  0.609701  0  4.18319  0
C  C23  1  0.60570654  0.74999712  0.38401789  1  0  0.692021  0  3.868685  0  0  0.633117  0  4.178185  0  0  0.66736  0  4.16939  0  0  0.219363  0.60991  0  4.183413  0
O  O24  1  0.57797792  0.24999191  0.34922739  1  0  -0.549158  0  2.085525  0  0  -0.492251  0  2.302034  0  0  -0.51678  0  2.287678  0  0  -0.316345  -0.475159  0  2.310938  0
O  O25  1  0.42201375  0.75000720  0.65076767  1  0  -0.549325  0  2.085614  0  0  -0.492326  0  2.30211  0  0  -0.516855  0  2.287753  0  0  -0.316424  -0.475232  0  2.311057  0
O  O26  1  0.29184686  0.24998958  0.14623979  1  0  -0.66252  0  1.941632  0  0  -0.612453  0  2.172601  0  0  -0.633699  0  2.158687  0  0  -0.364253  -0.598073  0  2.182165  0
O  O27  1  0.70814085  0.75000953  0.85375954  1  0  -0.662579  0  1.94161  0  0  -0.612476  0  2.172626  0  0  -0.633722  0  2.158715  0  0  -0.364176  -0.598095  0  2.182189  0
O  O28  1  0.60326657  0.25000625  0.59772613  1  0  -0.625169  0  2.088776  0  0  -0.556311  0  2.31083  0  0  -0.584765  0  2.302055  0  0  -0.3061  -0.536458  0  2.316036  0
O  O29  1  0.39673744  0.74999286  0.40227237  1  0  -0.625313  0  2.088913  0  0  -0.556408  0  2.310986  0  0  -0.584863  0  2.302207  0  0  -0.306172  -0.536555  0  2.316214  0
O  O30  1  0.36480566  0.25000379  0.73663644  1  0  -0.597211  0  1.992057  0  0  -0.529784  0  2.203873  0  0  -0.554615  0  2.193003  0  0  -0.278226  -0.512823  0  2.211226  0
O  O31  1  0.63520519  0.74999372  0.26336644  1  0  -0.597317  0  1.992098  0  0  -0.52985  0  2.203951  0  0  -0.554681  0  2.193078  0  0  -0.278204  -0.512887  0  2.211305  0
O  O32  1  0.98388339  0.25000977  0.82460524  1  0  -0.952952  0  1.77272  0  0  -0.905773  0  1.959439  0  0  -0.923427  0  1.92578  0  0  -0.739157  -0.892855  0  1.983235  0
O  O33  1  0.01612054  0.74998934  0.17539426  1  0  -0.952914  0  1.772736  0  0  -0.905733  0  1.959454  0  0  -0.92339  0  1.925794  0  0  -0.739155  -0.892817  0  1.983251  0
O  O34  1  0.67790822  0.24999232  0.01142593  1  0  -0.906811  0  1.751152  0  0  -0.865142  0  1.916132  0  0  -0.880528  0  1.881385  0  0  -0.666268  -0.85379  0  1.940257  0
O  O35  1  0.32209207  0.75000679  0.98857385  1  0  -0.906795  0  1.751207  0  0  -0.865116  0  1.916171  0  0  -0.880502  0  1.881426  0  0  -0.66627  -0.853767  0  1.940303  0
