# generated using pymatgen
data_Sr5H20C32(NO12)2
_symmetry_space_group_name_H-M   'P 1'
_cell_length_a   7.06301930
_cell_length_b   10.40302528
_cell_length_c   12.71477689
_cell_angle_alpha   90.94404105
_cell_angle_beta   91.69397742
_cell_angle_gamma   103.77833222
_symmetry_Int_Tables_number   1
_chemical_formula_structural   Sr5H20C32(NO12)2
_chemical_formula_sum   'Sr5 H20 C32 N2 O24'
_cell_volume   906.69472012
_cell_formula_units_Z   1
loop_
 _symmetry_equiv_pos_site_id
 _symmetry_equiv_pos_as_xyz
  1  'x, y, z'
loop_
 _atom_site_type_symbol
 _atom_site_label
 _atom_site_symmetry_multiplicity
 _atom_site_fract_x
 _atom_site_fract_y
 _atom_site_fract_z
 _atom_site_occupancy
 _atom_site_hle17_bader_spin_density
 _atom_site_hle17_ddec_charge
 _atom_site_hle17_ddec_spin_density
 _atom_site_hle17_ddec_sum_bond_order
 _atom_site_hle17_magmom
 _atom_site_hse06_10hf_bader_spin_density
 _atom_site_hse06_10hf_ddec_charge
 _atom_site_hse06_10hf_ddec_spin_density
 _atom_site_hse06_10hf_ddec_sum_bond_order
 _atom_site_hse06_10hf_magmom
 _atom_site_hse06_bader_spin_density
 _atom_site_hse06_ddec_charge
 _atom_site_hse06_ddec_spin_density
 _atom_site_hse06_ddec_sum_bond_order
 _atom_site_hse06_magmom
 _atom_site_pbe_bader_spin_density
 _atom_site_pbe_cm5_charge
 _atom_site_pbe_ddec_charge
 _atom_site_pbe_ddec_spin_density
 _atom_site_pbe_ddec_sum_bond_order
 _atom_site_pbe_magmom
Sr  Sr0  1  0.99999741  0.99999818  0.99999999  1  0  1.547914  0  1.212864  0  0  1.399742  0  1.570404  0  0  1.444726  0  1.525332  0  0  0.98634  1.367486  0  1.60126  0
Sr  Sr1  1  0.44020353  0.79900641  0.05814634  1  0  1.639004  0  1.061345  0  0  1.492924  0  1.421117  0  0  1.532098  0  1.378672  0  0  0.974556  1.463835  0  1.451552  0
Sr  Sr2  1  0.55979671  0.20099177  0.94185448  1  0  1.638994  0  1.061368  0  0  1.492894  0  1.421154  0  0  1.532067  0  1.378707  0  0  0.974552  1.463802  0  1.45159  0
Sr  Sr3  1  0.12808089  0.37311437  0.11124115  1  0  1.661689  0  1.070153  0  0  1.529225  0  1.431224  0  0  1.565358  0  1.388535  0  0  0.977417  1.50278  0  1.461376  0
Sr  Sr4  1  0.87191615  0.62688678  0.88875810  1  0  1.661707  0  1.07015  0  0  1.529239  0  1.431257  0  0  1.565373  0  1.388568  0  0  0.977419  1.502794  0  1.46141  0
H  H5  1  0.21651891  0.15740183  0.36028437  1  0  0.096922  0  0.968383  0  0  0.105225  0  1.034749  0  0  0.108829  0  1.031648  0  0  0.104972  0.102529  0  1.037228  0
H  H6  1  0.78347673  0.84259537  0.63971400  1  0  0.09695  0  0.968399  0  0  0.105252  0  1.03476  0  0  0.108856  0  1.031657  0  0  0.104969  0.102556  0  1.037239  0
H  H7  1  0.41493169  0.18186595  0.53056392  1  0  0.09617  0  0.966254  0  0  0.101517  0  1.034703  0  0  0.104736  0  1.033816  0  0  0.099589  0.09935  0  1.035137  0
H  H8  1  0.58506467  0.81812928  0.46943286  1  0  0.096183  0  0.966147  0  0  0.101576  0  1.034576  0  0  0.104801  0  1.033678  0  0  0.099605  0.099411  0  1.035011  0
H  H9  1  0.75378767  0.15914042  0.52964307  1  0  0.090321  0  0.957473  0  0  0.099042  0  1.022882  0  0  0.101923  0  1.021134  0  0  0.102103  0.096906  0  1.024306  0
H  H10  1  0.24621364  0.84085676  0.47035775  1  0  0.090338  0  0.957472  0  0  0.099066  0  1.022876  0  0  0.101948  0  1.021118  0  0  0.10211  0.096928  0  1.0243  0
H  H11  1  0.90079818  0.11195533  0.36062180  1  0  0.098072  0  0.951514  0  0  0.110366  0  1.008538  0  0  0.113465  0  1.006825  0  0  0.106831  0.108148  0  1.009754  0
H  H12  1  0.09920063  0.88804683  0.63937592  1  0  0.098054  0  0.951537  0  0  0.110369  0  1.008534  0  0  0.113463  0  1.006831  0  0  0.106834  0.10815  0  1.009752  0
H  H13  1  0.55635635  0.37166168  0.30406465  1  0  0.092133  0  0.992836  0  0  0.100821  0  1.058256  0  0  0.102585  0  1.059533  0  0  0.104698  0.099674  0  1.057249  0
H  H14  1  0.44364530  0.62834043  0.69593941  1  0  0.092123  0  0.992794  0  0  0.100828  0  1.058196  0  0  0.10259  0  1.059474  0  0  0.104694  0.099678  0  1.057198  0
H  H15  1  0.65957584  0.47835814  0.47897874  1  0  0.101173  0  0.968114  0  0  0.111568  0  1.029442  0  0  0.114464  0  1.028245  0  0  0.103505  0.109499  0  1.030343  0
H  H16  1  0.34042616  0.52164498  0.52102299  1  0  0.101224  0  0.968036  0  0  0.111617  0  1.029364  0  0  0.114529  0  1.028147  0  0  0.103511  0.109547  0  1.030266  0
H  H17  1  0.88605389  0.70205872  0.49183479  1  0  0.088867  0  0.960501  0  0  0.10189  0  1.018457  0  0  0.104402  0  1.017564  0  0  0.101935  0.100047  0  1.019209  0
H  H18  1  0.11394739  0.29794638  0.50816774  1  0  0.088921  0  0.960494  0  0  0.101929  0  1.018468  0  0  0.10444  0  1.017572  0  0  0.101936  0.100084  0  1.019221  0
H  H19  1  0.00413335  0.81930376  0.32639075  1  0  0.102383  0  0.930783  0  0  0.115175  0  0.986917  0  0  0.118291  0  0.985302  0  0  0.111451  0.113052  0  0.987856  0
H  H20  1  0.99587078  0.18069738  0.67360940  1  0  0.102389  0  0.930799  0  0  0.115171  0  0.98694  0  0  0.118292  0  0.98532  0  0  0.111471  0.113048  0  0.987878  0
H  H21  1  0.93544073  0.36336947  0.33478149  1  0  0.405643  0  0.877763  0  0  0.379718  0  0.949457  0  0  0.386415  0  0.940296  0  0  0.301504  0.37505  0  0.955831  0
H  H22  1  0.06455703  0.63662970  0.66521853  1  0  0.405669  0  0.877737  0  0  0.379743  0  0.949423  0  0  0.386439  0  0.940263  0  0  0.301518  0.375075  0  0.955797  0
H  H23  1  0.14055374  0.46580222  0.33536631  1  0  0.409937  0  0.90264  0  0  0.376809  0  0.970499  0  0  0.38826  0  0.953888  0  0  0.293699  0.368852  0  0.982013  0
H  H24  1  0.85944402  0.53419695  0.66463371  1  0  0.40993  0  0.90265  0  0  0.376807  0  0.970502  0  0  0.388256  0  0.953894  0  0  0.293698  0.368851  0  0.982016  0
C  C25  1  0.44692037  0.11972435  0.26750552  1  0  -0.092841  0  3.739253  0  0  -0.079229  0  3.974603  0  0  -0.086229  0  3.994403  0  0  -0.008136  -0.074818  0  3.961564  0
C  C26  1  0.55307597  0.88027484  0.73249211  1  0  -0.092901  0  3.73942  0  0  -0.079261  0  3.974745  0  0  -0.086285  0  3.994578  0  0  -0.008116  -0.074848  0  3.961704  0
C  C27  1  0.36619275  0.14650732  0.36262929  1  0  -0.065314  0  3.72453  0  0  -0.087523  0  3.971147  0  0  -0.086894  0  3.989714  0  0  -0.077469  -0.087835  0  3.958906  0
C  C28  1  0.63380607  0.85349087  0.63736916  1  0  -0.065377  0  3.724595  0  0  -0.087593  0  3.971228  0  0  -0.086958  0  3.989801  0  0  -0.077482  -0.087905  0  3.958989  0
C  C29  1  0.47633314  0.16127657  0.45640801  1  0  -0.069429  0  3.754222  0  0  -0.083535  0  4.008114  0  0  -0.086849  0  4.029289  0  0  -0.088321  -0.081467  0  3.993839  0
C  C30  1  0.52367064  0.83871963  0.54359125  1  0  -0.069449  0  3.754144  0  0  -0.08361  0  4.008041  0  0  -0.086926  0  4.029215  0  0  -0.088359  -0.081543  0  3.993769  0
C  C31  1  0.66887172  0.14845167  0.45580120  1  0  -0.041172  0  3.748459  0  0  -0.058871  0  4.001898  0  0  -0.058253  0  4.021551  0  0  -0.079588  -0.059094  0  3.988484  0
C  C32  1  0.33113170  0.85154750  0.54419733  1  0  -0.041134  0  3.748536  0  0  -0.058838  0  4.001977  0  0  -0.058215  0  4.021625  0  0  -0.079554  -0.059058  0  3.98856  0
C  C33  1  0.75086527  0.12221386  0.36178113  1  0  -0.099905  0  3.73295  0  0  -0.115904  0  3.976006  0  0  -0.118827  0  3.995376  0  0  -0.083529  -0.113713  0  3.962382  0
C  C34  1  0.24913567  0.87778632  0.63821502  1  0  -0.099888  0  3.73318  0  0  -0.115921  0  3.976253  0  0  -0.118844  0  3.995621  0  0  -0.083545  -0.113729  0  3.962626  0
C  C35  1  0.64150245  0.10967011  0.26696711  1  0  -0.030583  0  3.692213  0  0  -0.018132  0  3.923791  0  0  -0.019497  0  3.941227  0  0  0.009468  -0.017385  0  3.91202  0
C  C36  1  0.35849601  0.89033106  0.73303059  1  0  -0.030588  0  3.692434  0  0  -0.018121  0  3.923961  0  0  -0.019479  0  3.941402  0  0  0.009465  -0.017374  0  3.912188  0
C  C37  1  0.32537109  0.10301780  0.16846285  1  0  0.686786  0  3.888684  0  0  0.635446  0  4.180289  0  0  0.670758  0  4.170078  0  0  0.229062  0.611437  0  4.186644  0
C  C38  1  0.67462560  0.89698238  0.83153402  1  0  0.686951  0  3.888613  0  0  0.635552  0  4.180262  0  0  0.67087  0  4.170049  0  0  0.229033  0.611542  0  4.186614  0
C  C39  1  0.73451066  0.08603135  0.16621312  1  0  0.708688  0  3.896822  0  0  0.655757  0  4.192694  0  0  0.691155  0  4.180153  0  0  0.23447  0.631552  0  4.200611  0
C  C40  1  0.26549063  0.91396980  0.83378620  1  0  0.708699  0  3.896788  0  0  0.655771  0  4.192636  0  0  0.69117  0  4.180094  0  0  0.23447  0.631566  0  4.200558  0
C  C41  1  0.72408925  0.53264881  0.21687809  1  0  -0.0822  0  3.719304  0  0  -0.070108  0  3.957322  0  0  -0.074329  0  3.975724  0  0  -0.000804  -0.067397  0  3.945231  0
C  C42  1  0.27591522  0.46735332  0.78312287  1  0  -0.082186  0  3.719433  0  0  -0.070158  0  3.957415  0  0  -0.074372  0  3.975807  0  0  -0.000821  -0.067449  0  3.945323  0
C  C43  1  0.65462328  0.46982425  0.30952575  1  0  -0.095954  0  3.755501  0  0  -0.115306  0  4.002167  0  0  -0.116296  0  4.022015  0  0  -0.085044  -0.114754  0  3.988743  0
C  C44  1  0.34537730  0.53017886  0.69047753  1  0  -0.095803  0  3.755331  0  0  -0.115163  0  4.001995  0  0  -0.116155  0  4.021847  0  0  -0.084985  -0.114614  0  3.98857  0
C  C45  1  0.71294522  0.53014698  0.40798954  1  0  -0.06399  0  3.739684  0  0  -0.078255  0  3.987117  0  0  -0.079276  0  4.00619  0  0  -0.087441  -0.077415  0  3.97414  0
C  C46  1  0.28705713  0.46985712  0.59201299  1  0  -0.064108  0  3.739596  0  0  -0.078376  0  3.987039  0  0  -0.079408  0  4.006104  0  0  -0.087479  -0.077535  0  3.97406  0
C  C47  1  0.84021665  0.65554813  0.41481537  1  0  -0.059058  0  3.74622  0  0  -0.072492  0  3.996604  0  0  -0.074211  0  4.016851  0  0  -0.085957  -0.071206  0  3.982727  0
C  C48  1  0.15978712  0.34445598  0.58518561  1  0  -0.059132  0  3.746205  0  0  -0.07256  0  3.996593  0  0  -0.074275  0  4.016843  0  0  -0.085946  -0.07128  0  3.982734  0
C  C49  1  0.90774163  0.72022046  0.32314414  1  0  -0.054342  0  3.707237  0  0  -0.082579  0  3.96414  0  0  -0.082672  0  3.982849  0  0  -0.075174  -0.082341  0  3.951008  0
C  C50  1  0.09226214  0.27977969  0.67685598  1  0  -0.05432  0  3.707188  0  0  -0.082554  0  3.964089  0  0  -0.082651  0  3.982795  0  0  -0.075192  -0.08232  0  3.950954  0
C  C51  1  0.85068763  0.66011374  0.22425713  1  0  -0.06873  0  3.706276  0  0  -0.055896  0  3.945291  0  0  -0.060597  0  3.964438  0  0  0.000902  -0.052928  0  3.932661  0
C  C52  1  0.14931826  0.33988839  0.77574306  1  0  -0.068719  0  3.706366  0  0  -0.055883  0  3.945371  0  0  -0.060588  0  3.964522  0  0  0.000868  -0.052905  0  3.932723  0
C  C53  1  0.91529917  0.73867367  0.12890870  1  0  0.688868  0  3.900592  0  0  0.638673  0  4.193255  0  0  0.674066  0  4.18139  0  0  0.230483  0.614424  0  4.201024  0
C  C54  1  0.08470425  0.26132549  0.87109140  1  0  0.688763  0  3.900847  0  0  0.638577  0  4.193501  0  0  0.673973  0  4.181634  0  0  0.230473  0.614326  0  4.201266  0
C  C55  1  0.67629279  0.45542534  0.11422576  1  0  0.692349  0  3.89113  0  0  0.639564  0  4.194011  0  0  0.675229  0  4.181332  0  0  0.238263  0.615281  0  4.202105  0
C  C56  1  0.32370816  0.54457480  0.88577747  1  0  0.69214  0  3.89132  0  0  0.639566  0  4.193877  0  0  0.675228  0  4.181199  0  0  0.238268  0.615282  0  4.201974  0
N  N57  1  0.34941792  0.66890463  0.27425282  1  0  0.714395  0  4.132602  0  0  0.740412  0  4.430669  0  0  0.768789  0  4.437123  0  0  0.100045  0.723229  0  4.425506  0
N  N58  1  0.65058091  0.33109355  0.72574719  1  0  0.714444  0  4.13249  0  0  0.740463  0  4.430564  0  0  0.768837  0  4.437022  0  0  0.100105  0.723285  0  4.425395  0
O  O59  1  0.38012311  0.04747480  0.08701876  1  0  -0.778558  0  2.039099  0  0  -0.705426  0  2.28213  0  0  -0.732586  0  2.272014  0  0  -0.391668  -0.686224  0  2.288565  0
O  O60  1  0.61987535  0.95252637  0.91297816  1  0  -0.778685  0  2.039098  0  0  -0.70549  0  2.282113  0  0  -0.732651  0  2.271997  0  0  -0.391633  -0.68628  0  2.288537  0
O  O61  1  0.16906100  0.14295022  0.16666358  1  0  -0.71528  0  2.02501  0  0  -0.654061  0  2.27142  0  0  -0.680309  0  2.262338  0  0  -0.383496  -0.635862  0  2.277264  0
O  O62  1  0.83093322  0.85704698  0.83333556  1  0  -0.715324  0  2.02501  0  0  -0.654104  0  2.271485  0  0  -0.680351  0  2.2624  0  0  -0.383487  -0.635908  0  2.27733  0
O  O63  1  0.79938736  0.18431528  0.10703672  1  0  -0.780499  0  2.014906  0  0  -0.716209  0  2.264039  0  0  -0.743481  0  2.253652  0  0  -0.384856  -0.696741  0  2.270632  0
O  O64  1  0.20061075  0.81568489  0.89296175  1  0  -0.780464  0  2.014809  0  0  -0.716214  0  2.264011  0  0  -0.743488  0  2.253626  0  0  -0.384823  -0.696747  0  2.270608  0
O  O65  1  0.74923531  0.96948679  0.14605322  1  0  -0.706899  0  2.037686  0  0  -0.647657  0  2.280843  0  0  -0.675256  0  2.272597  0  0  -0.381385  -0.628015  0  2.285691  0
O  O66  1  0.25076104  0.03051238  0.85394678  1  0  -0.706925  0  2.037698  0  0  -0.647666  0  2.280808  0  0  -0.675264  0  2.272561  0  0  -0.38141  -0.628024  0  2.285659  0
O  O67  1  0.78691753  0.73805266  0.05493011  1  0  -0.792936  0  2.080344  0  0  -0.723626  0  2.329659  0  0  -0.750718  0  2.318228  0  0  -0.41106  -0.704409  0  2.337246  0
O  O68  1  0.21307952  0.26194848  0.94507307  1  0  -0.792911  0  2.08039  0  0  -0.723569  0  2.329612  0  0  -0.750661  0  2.31818  0  0  -0.411042  -0.704352  0  2.337196  0
O  O69  1  0.08935281  0.80658375  0.12464597  1  0  -0.70875  0  1.994892  0  0  -0.652595  0  2.239642  0  0  -0.678706  0  2.23083  0  0  -0.353741  -0.634252  0  2.245295  0
O  O70  1  0.91065310  0.19341046  0.87535330  1  0  -0.708674  0  1.995075  0  0  -0.65254  0  2.239823  0  0  -0.678653  0  2.231012  0  0  -0.353744  -0.634196  0  2.245474  0
O  O71  1  0.50684590  0.38235231  0.09682494  1  0  -0.699154  0  1.969853  0  0  -0.640174  0  2.217212  0  0  -0.665775  0  2.206874  0  0  -0.344557  -0.622181  0  2.223957  0
O  O72  1  0.49315751  0.61765079  0.90317917  1  0  -0.699088  0  1.969929  0  0  -0.640175  0  2.217184  0  0  -0.665775  0  2.206847  0  0  -0.344569  -0.622183  0  2.223932  0
O  O73  1  0.81614892  0.46101665  0.05050892  1  0  -0.779452  0  1.98258  0  0  -0.712741  0  2.231552  0  0  -0.738926  0  2.219256  0  0  -0.377981  -0.694267  0  2.239684  0
O  O74  1  0.18385096  0.53898449  0.94949195  1  0  -0.77937  0  1.982723  0  0  -0.712728  0  2.231601  0  0  -0.738915  0  2.219305  0  0  -0.377975  -0.694255  0  2.239734  0
O  O75  1  0.29011627  0.61590443  0.35912100  1  0  -0.439702  0  1.835488  0  0  -0.414348  0  2.043343  0  0  -0.432189  0  2.040623  0  0  -0.146579  -0.403059  0  2.045265  0
O  O76  1  0.70988149  0.38409475  0.64087901  1  0  -0.439694  0  1.83534  0  0  -0.414357  0  2.043186  0  0  -0.432185  0  2.040459  0  0  -0.14662  -0.403071  0  2.045108  0
O  O77  1  0.44539347  0.78675940  0.27173972  1  0  -0.44008  0  1.767908  0  0  -0.431783  0  1.988529  0  0  -0.446359  0  1.985038  0  0  -0.17009  -0.422402  0  1.990612  0
O  O78  1  0.55460393  0.21323879  0.72825949  1  0  -0.440161  0  1.767926  0  0  -0.431835  0  1.988511  0  0  -0.446409  0  1.98502  0  0  -0.170138  -0.422454  0  1.990593  0
O  O79  1  0.31129686  0.60210660  0.18653030  1  0  -0.611607  0  1.850967  0  0  -0.594517  0  2.106135  0  0  -0.61324  0  2.099032  0  0  -0.273334  -0.582022  0  2.110688  0
O  O80  1  0.68870338  0.39789157  0.81346974  1  0  -0.611582  0  1.850983  0  0  -0.594501  0  2.106164  0  0  -0.613228  0  2.099067  0  0  -0.27331  -0.582007  0  2.110714  0
O  O81  1  0.06742595  0.37593699  0.30959675  1  0  -0.870923  0  1.83929  0  0  -0.823046  0  2.028184  0  0  -0.841727  0  2.000363  0  0  -0.62792  -0.809606  0  2.04726  0
O  O82  1  0.93257323  0.62406217  0.69040329  1  0  -0.870952  0  1.8393  0  0  -0.823064  0  2.028174  0  0  -0.841744  0  2.000359  0  0  -0.627926  -0.809624  0  2.047249  0
