# generated using pymatgen
data_ZnH8C12(IN2)2
_symmetry_space_group_name_H-M   'P 1'
_cell_length_a   14.93605237
_cell_length_b   18.52922924
_cell_length_c   32.86323005
_cell_angle_alpha   103.25561256
_cell_angle_beta   93.12452299
_cell_angle_gamma   109.05852827
_symmetry_Int_Tables_number   1
_chemical_formula_structural   ZnH8C12(IN2)2
_chemical_formula_sum   'Zn12 H96 C144 I24 N48'
_cell_volume   8284.28646995
_cell_formula_units_Z   12
loop_
 _symmetry_equiv_pos_site_id
 _symmetry_equiv_pos_as_xyz
  1  'x, y, z'
loop_
 _atom_site_type_symbol
 _atom_site_label
 _atom_site_symmetry_multiplicity
 _atom_site_fract_x
 _atom_site_fract_y
 _atom_site_fract_z
 _atom_site_occupancy
 _atom_site_pbe_bader_charge
 _atom_site_pbe_bader_spin_density
 _atom_site_pbe_cm5_charge
 _atom_site_pbe_ddec_charge
 _atom_site_pbe_ddec_spin_density
 _atom_site_pbe_ddec_sum_bond_order
 _atom_site_pbe_magmom
Zn  Zn0  1  0.20514517  0.73463763  0.06432032  1  0.909209  0  0.447045  0.478893  0  2.753861  0
Zn  Zn1  1  0.66867237  0.16493046  0.22342216  1  0.897978  0  0.438905  0.450788  0  2.751902  0
Zn  Zn2  1  0.29647341  0.33157364  0.89902105  1  0.904493  0  0.443861  0.476858  0  2.736002  0
Zn  Zn3  1  0.96736214  0.14408495  0.73124509  1  0.902749  0  0.446575  0.452894  0  2.738978  0
Zn  Zn4  1  0.48569335  0.22904980  0.42819614  1  0.898615  0  0.440906  0.458827  0  2.773864  0
Zn  Zn5  1  0.04015350  0.73895091  0.55061691  1  0.908557  0  0.447399  0.473531  0  2.746924  0
Zn  Zn6  1  0.79485648  0.26536389  0.93568013  1  0.909209  0  0.44704  0.478877  0  2.753942  0
Zn  Zn7  1  0.33132844  0.83507224  0.77657812  1  0.897969  0  0.438966  0.450883  0  2.751836  0
Zn  Zn8  1  0.70352764  0.66842966  0.10097900  1  0.904473  0  0.443878  0.47683  0  2.736066  0
Zn  Zn9  1  0.03263700  0.85591539  0.26875453  1  0.90273  0  0.446605  0.452927  0  2.738944  0
Zn  Zn10  1  0.51430864  0.77094936  0.57180371  1  0.898724  0  0.440932  0.458837  0  2.773805  0
Zn  Zn11  1  0.95984799  0.26104706  0.44938216  1  0.908521  0  0.447431  0.473539  0  2.746874  0
H  H12  1  0.32905664  0.87187206  0.13606581  1  0.111794  0  0.106311  0.084948  0  1.017831  0
H  H13  1  0.31148653  0.98728857  0.18786753  1  0.137333  0  0.098212  0.110686  0  1.05526  0
H  H14  1  0.01783485  0.90985268  0.12934412  1  0.111881  0  0.110123  0.119507  0  1.012214  0
H  H15  1  0.04770194  0.79970527  0.07942238  1  0.153453  0  0.102666  0.091327  0  1.033051  0
H  H16  1  0.28288002  0.22062208  0.40144945  1  0.107106  0  0.104519  0.084926  0  1.034629  0
H  H17  1  0.16904330  0.17565939  0.33508752  1  0.124237  0  0.101265  0.114646  0  1.037006  0
H  H18  1  0.39546848  0.13449074  0.26705926  1  0.127772  0  0.110849  0.120741  0  1.009162  0
H  H19  1  0.50326030  0.18711606  0.33610197  1  0.14171  0  0.105075  0.089992  0  1.023969  0
H  H20  1  0.74124672  0.04457441  0.16887056  1  0.105104  0  0.114236  0.087065  0  1.00184  0
H  H21  1  0.89514710  0.01632899  0.16490276  1  0.126848  0  0.118995  0.130173  0  0.986832  0
H  H22  1  0.02076804  0.21254923  0.27484181  1  0.149379  0  0.116873  0.128562  0  0.993257  0
H  H23  1  0.86187269  0.23349850  0.27415000  1  0.138795  0  0.101656  0.076692  0  1.041373  0
H  H24  1  0.80702825  0.31795972  0.21589564  1  0.117079  0  0.114282  0.082861  0  0.995539  0
H  H25  1  0.83461373  0.40255177  0.16441969  1  0.127487  0  0.118656  0.130708  0  0.984298  0
H  H26  1  0.57554740  0.23474248  0.08718369  1  0.148814  0  0.118732  0.129409  0  0.987908  0
H  H27  1  0.56115792  0.15387678  0.14041425  1  0.120805  0  0.104514  0.080322  0  1.035243  0
H  H28  1  0.03498117  0.62904520  0.99948664  1  0.119077  0  0.105637  0.08479  0  1.018619  0
H  H29  1  0.87691361  0.52102378  0.99697463  1  0.12533  0  0.116645  0.130587  0  0.983568  0
H  H30  1  0.94566349  0.55876486  0.13105966  1  0.123002  0  0.113153  0.127833  0  0.990403  0
H  H31  1  0.09991508  0.66471904  0.12831742  1  0.113232  0  0.108104  0.081942  0  1.009448  0
H  H32  1  0.34694454  0.25781448  0.96292932  1  0.123729  0  0.108009  0.083878  0  1.015751  0
H  H33  1  0.48681303  0.27668174  0.01595915  1  0.124316  0  0.117735  0.12883  0  0.985631  0
H  H34  1  0.63988843  0.48978217  0.98140480  1  0.130704  0  0.117214  0.131097  0  0.98562  0
H  H35  1  0.49371669  0.46209098  0.92928046  1  0.10583  0  0.107539  0.084755  0  1.018862  0
H  H36  1  0.46783721  0.30063725  0.87423202  1  0.110667  0  0.105884  0.084025  0  1.029805  0
H  H37  1  0.51654824  0.21366329  0.81738841  1  0.101989  0  0.101772  0.116273  0  1.04096  0
H  H38  1  0.21655028  0.08406610  0.77126753  1  0.148552  0  0.100993  0.107994  0  1.048613  0
H  H39  1  0.17916053  0.17507046  0.83182993  1  0.129468  0  0.101975  0.08223  0  1.035043  0
H  H40  1  0.78971793  0.02391030  0.67026703  1  0.110022  0  0.11671  0.089324  0  0.989249  0
H  H41  1  0.61168566  0.99095792  0.66395097  1  0.151553  0  0.102659  0.115403  0  1.044737  0
H  H42  1  0.65917026  0.17284420  0.78013361  1  0.13888  0  0.112755  0.121242  0  1.017348  0
H  H43  1  0.83558794  0.20004992  0.78091401  1  0.13269  0  0.098526  0.07624  0  1.052617  0
H  H44  1  0.04647355  0.84898402  0.63403636  1  0.094991  0  0.097678  0.0743  0  1.049224  0
H  H45  1  0.16992474  0.94928690  0.69276616  1  0.114727  0  0.097391  0.110931  0  1.053377  0
H  H46  1  0.38677357  0.89180399  0.62395395  1  0.155636  0  0.094897  0.108642  0  1.065795  0
H  H47  1  0.25581536  0.79568180  0.56786472  1  0.133991  0  0.111078  0.089146  0  1.006846  0
H  H48  1  0.08081361  0.13051123  0.66059676  1  0.12817  0  0.102531  0.081072  0  1.044641  0
H  H49  1  0.15432185  0.20942747  0.61018305  1  0.118509  0  0.11904  0.128327  0  0.992967  0
H  H50  1  0.00620843  0.36889373  0.65690348  1  0.121912  0  0.118358  0.128098  0  0.986576  0
H  H51  1  0.94218495  0.28609652  0.70695189  1  0.109633  0  0.119693  0.089457  0  0.979138  0
H  H52  1  0.45975479  0.38594968  0.46011688  1  0.123103  0  0.111364  0.085973  0  1.005738  0
H  H53  1  0.35101416  0.43964207  0.50463684  1  0.124202  0  0.115715  0.12803  0  0.993222  0
H  H54  1  0.24070516  0.21360524  0.53300860  1  0.112241  0  0.120086  0.130486  0  0.985401  0
H  H55  1  0.35028499  0.16777938  0.48578680  1  0.128844  0  0.108439  0.087163  0  1.024391  0
H  H56  1  0.02176200  0.64442139  0.61232873  1  0.115144  0  0.108462  0.08202  0  1.012744  0
H  H57  1  0.06311858  0.52830026  0.62372380  1  0.133519  0  0.115162  0.123843  0  0.991419  0
H  H58  1  0.15781483  0.50293256  0.50136777  1  0.141094  0  0.115456  0.128136  0  0.991749  0
H  H59  1  0.11419304  0.62149980  0.49518979  1  0.121073  0  0.108126  0.08572  0  1.015628  0
H  H60  1  0.67094468  0.12812710  0.86393584  1  0.111862  0  0.106289  0.084947  0  1.017903  0
H  H61  1  0.68851094  0.01270940  0.81213419  1  0.137189  0  0.098217  0.110671  0  1.055211  0
H  H62  1  0.98216463  0.09014529  0.87065520  1  0.11187  0  0.110138  0.119508  0  1.012157  0
H  H63  1  0.95230013  0.20029566  0.92057618  1  0.153453  0  0.102685  0.091295  0  1.033067  0
H  H64  1  0.71712634  0.77937471  0.59855172  1  0.105169  0  0.104535  0.084888  0  1.034646  0
H  H65  1  0.83095719  0.82433621  0.66491549  1  0.125761  0  0.101342  0.114743  0  1.036826  0
H  H66  1  0.60452948  0.86550842  0.73293988  1  0.12731  0  0.110844  0.120754  0  1.009201  0
H  H67  1  0.49674211  0.81288250  0.66389568  1  0.141612  0  0.105081  0.090046  0  1.023877  0
H  H68  1  0.25875524  0.95543422  0.83112747  1  0.105238  0  0.114267  0.08715  0  1.001804  0
H  H69  1  0.10485294  0.98367667  0.83509545  1  0.126838  0  0.119  0.130159  0  0.986908  0
H  H70  1  0.97923236  0.78744934  0.72515914  1  0.149634  0  0.116871  0.12857  0  0.993214  0
H  H71  1  0.13812938  0.76650243  0.72585191  1  0.138897  0  0.101661  0.076696  0  1.04135  0
H  H72  1  0.19297198  0.68204003  0.78410393  1  0.117074  0  0.114291  0.082912  0  0.9955  0
H  H73  1  0.16538590  0.59744975  0.83558041  1  0.127166  0  0.118627  0.130674  0  0.984283  0
H  H74  1  0.42445618  0.76525727  0.91281415  1  0.148773  0  0.11876  0.129434  0  0.987929  0
H  H75  1  0.43884625  0.84612119  0.85958367  1  0.120773  0  0.104531  0.080407  0  1.03525  0
H  H76  1  0.96502182  0.37095632  0.00051354  1  0.119086  0  0.105634  0.084793  0  1.018556  0
H  H77  1  0.12308955  0.47897655  0.00302479  1  0.125296  0  0.116639  0.130584  0  0.983505  0
H  H78  1  0.05433858  0.44123607  0.86894011  1  0.123219  0  0.113129  0.127772  0  0.990506  0
H  H79  1  0.90008565  0.33528189  0.87168232  1  0.113241  0  0.108146  0.081993  0  1.009404  0
H  H80  1  0.65305711  0.74218704  0.03707113  1  0.12369  0  0.107999  0.083877  0  1.015746  0
H  H81  1  0.51318853  0.72332274  0.98404229  1  0.124199  0  0.117783  0.12889  0  0.985554  0
H  H82  1  0.36011363  0.51021876  0.01859406  1  0.129766  0  0.117237  0.131139  0  0.985615  0
H  H83  1  0.50628505  0.53790758  0.07071778  1  0.105704  0  0.107558  0.084779  0  1.018795  0
H  H84  1  0.53216142  0.69936190  0.12576805  1  0.110635  0  0.105869  0.084013  0  1.02984  0
H  H85  1  0.48344679  0.78633527  0.18261058  1  0.101869  0  0.1018  0.116331  0  1.041045  0
H  H86  1  0.78344442  0.91593483  0.22873389  1  0.148587  0  0.101007  0.107975  0  1.048636  0
H  H87  1  0.82083643  0.82493106  0.16817162  1  0.129525  0  0.101941  0.082166  0  1.035056  0
H  H88  1  0.21028129  0.97609181  0.32973404  1  0.110026  0  0.116708  0.089302  0  0.989262  0
H  H89  1  0.38831331  0.00904360  0.33605002  1  0.151551  0  0.102689  0.115417  0  1.044625  0
H  H90  1  0.34082729  0.82715554  0.21986833  1  0.138865  0  0.11281  0.121286  0  1.017399  0
H  H91  1  0.16441011  0.79995101  0.21908749  1  0.132733  0  0.098507  0.076294  0  1.052615  0
H  H92  1  0.95352568  0.15101336  0.36596228  1  0.095028  0  0.097653  0.074312  0  1.0492  0
H  H93  1  0.83007415  0.05071285  0.30723277  1  0.114702  0  0.097386  0.110871  0  1.05341  0
H  H94  1  0.61322557  0.10819634  0.37604567  1  0.155624  0  0.094874  0.108598  0  1.065868  0
H  H95  1  0.74418461  0.20431736  0.43213477  1  0.134035  0  0.111078  0.08915  0  1.006848  0
H  H96  1  0.91918411  0.86948734  0.33940260  1  0.128141  0  0.102522  0.081024  0  1.04465  0
H  H97  1  0.84567653  0.79057109  0.38981633  1  0.118632  0  0.119037  0.128309  0  0.993005  0
H  H98  1  0.99378836  0.63110425  0.34309609  1  0.121925  0  0.118379  0.128111  0  0.986546  0
H  H99  1  0.05781118  0.71390146  0.29304705  1  0.109676  0  0.119706  0.089454  0  0.979177  0
H  H100  1  0.54024427  0.61404888  0.53988191  1  0.123083  0  0.111395  0.08602  0  1.005724  0
H  H101  1  0.64898632  0.56035827  0.49536221  1  0.124127  0  0.115734  0.128034  0  0.993232  0
H  H102  1  0.75929448  0.78639628  0.46699150  1  0.112222  0  0.120068  0.130455  0  0.985426  0
H  H103  1  0.64971456  0.83222036  0.51421397  1  0.128824  0  0.108451  0.08718  0  1.024364  0
H  H104  1  0.97823597  0.35557777  0.38767102  1  0.115145  0  0.108406  0.08192  0  1.012813  0
H  H105  1  0.93688055  0.47170008  0.37627673  1  0.13335  0  0.115112  0.123728  0  0.991531  0
H  H106  1  0.84218214  0.49706423  0.49863225  1  0.14103  0  0.115451  0.128122  0  0.991802  0
H  H107  1  0.88580577  0.37849817  0.50481012  1  0.120865  0  0.108149  0.085731  0  1.015595  0
C  C108  1  0.26188802  0.88335937  0.13555458  1  0.447305  0  0.045261  0.092162  0  3.917227  0
C  C109  1  0.25161891  0.94687298  0.16422447  1  0.036668  0  -0.076165  -0.137522  0  3.925326  0
C  C110  1  0.16296545  0.95767986  0.16252329  1  -0.047755  0  0.014256  0.046988  0  3.937406  0
C  C111  1  0.08824946  0.90453308  0.13143686  1  -0.011522  0  -0.069431  -0.128234  0  3.916477  0
C  C112  1  0.10468718  0.84277146  0.10369935  1  0.470752  0  0.049152  0.099773  0  3.898291  0
C  C113  1  0.14922953  0.02234778  0.19446242  1  1.057498  0  0.26603  0.387387  0  3.984883  0
C  C114  1  0.20428457  0.11660384  0.25664867  1  1.107574  0  0.265277  0.386886  0  4.011859  0
C  C115  1  0.06062987  0.09617999  0.22076298  1  1.10619  0  0.25986  0.376144  0  4.014064  0
C  C116  1  0.30603949  0.20262793  0.37105673  1  0.490983  0  0.045441  0.095461  0  3.907749  0
C  C117  1  0.24246432  0.17754516  0.33399724  1  -0.005859  0  -0.073708  -0.136894  0  3.924769  0
C  C118  1  0.27372567  0.15181802  0.29578435  1  -0.068083  0  0.015582  0.047858  0  3.949059  0
C  C119  1  0.36863300  0.15448409  0.29613313  1  -0.03798  0  -0.068287  -0.133393  0  3.903899  0
C  C120  1  0.42837479  0.18262381  0.33450909  1  0.500681  0  0.050191  0.098753  0  3.899761  0
C  C121  1  0.80571537  0.08103997  0.19119469  1  0.479457  0  0.053277  0.097483  0  3.910017  0
C  C122  1  0.89062509  0.06549451  0.18919469  1  -0.012298  0  -0.064865  -0.130074  0  3.898884  0
C  C123  1  0.97005953  0.11308558  0.21952576  1  -0.001754  0  0.018751  0.056424  0  3.93466  0
C  C124  1  0.96073472  0.17517281  0.25051472  1  -0.022718  0  -0.06869  -0.133026  0  3.906367  0
C  C125  1  0.87364260  0.18700402  0.25021970  1  0.426398  0  0.045862  0.091779  0  3.925571  0
C  C126  1  0.75859912  0.30107949  0.18651218  1  0.48271  0  0.04929  0.090603  0  3.935851  0
C  C127  1  0.77312397  0.34807854  0.15837466  1  0.004697  0  -0.065701  -0.130782  0  3.903532  0
C  C128  1  0.70658784  0.32456414  0.12191958  1  -0.043193  0  0.024046  0.068898  0  3.920111  0
C  C129  1  0.62832677  0.25425509  0.11522183  1  -0.030054  0  -0.064292  -0.124483  0  3.896206  0
C  C130  1  0.61994625  0.20981920  0.14447287  1  0.445526  0  0.049917  0.096982  0  3.911889  0
C  C131  1  0.71806515  0.37247320  0.09086515  1  1.169267  0  0.260614  0.378209  0  4.023332  0
C  C132  1  0.80957032  0.46795745  0.06342687  1  1.117115  0  0.262036  0.377289  0  4.016399  0
C  C133  1  0.65588904  0.39889481  0.03403462  1  1.132216  0  0.264296  0.380477  0  4.01672  0
C  C134  1  0.01198776  0.61062546  0.02762996  1  0.460902  0  0.046541  0.094785  0  3.928271  0
C  C135  1  0.92550550  0.55124335  0.02639129  1  -0.013258  0  -0.070655  -0.134214  0  3.926587  0
C  C136  1  0.90131526  0.53067945  0.06374708  1  -0.014532  0  0.019388  0.058803  0  3.939923  0
C  C137  1  0.96401045  0.57182803  0.10130856  1  -0.012043  0  -0.069477  -0.130178  0  3.903621  0
C  C138  1  0.04866036  0.63094751  0.09994833  1  0.480607  0  0.04576  0.09562  0  3.929734  0
C  C139  1  0.41370540  0.30796102  0.96798583  1  0.434823  0  0.048365  0.094314  0  3.923869  0
C  C140  1  0.49032479  0.31887288  0.99736611  1  0.006171  0  -0.066208  -0.12837  0  3.907963  0
C  C141  1  0.57326700  0.38518060  0.00269813  1  0.000483  0  0.019964  0.057319  0  3.938195  0
C  C142  1  0.57599102  0.43799972  0.97802589  1  -0.004805  0  -0.068323  -0.130025  0  3.912258  0
C  C143  1  0.49598735  0.42300886  0.94936783  1  0.46339  0  0.046503  0.088204  0  3.924318  0
C  C144  1  0.41401875  0.25168679  0.85113980  1  0.471688  0  0.045615  0.09837  0  3.919092  0
C  C145  1  0.44114827  0.20354371  0.81920402  1  0.042274  0  -0.073756  -0.130899  0  3.917604  0
C  C146  1  0.37016459  0.14225674  0.78954167  1  0.017427  0  0.014839  0.050099  0  3.941166  0
C  C147  1  0.27399575  0.13058402  0.79395588  1  -0.092069  0  -0.073029  -0.136828  0  3.908137  0
C  C148  1  0.25285468  0.18094863  0.82739254  1  0.463084  0  0.047448  0.097733  0  3.905187  0
C  C149  1  0.39889654  0.09237243  0.75452232  1  1.125468  0  0.263115  0.382988  0  4.018323  0
C  C150  1  0.51723705  0.06262540  0.72194584  1  1.122328  0  0.262922  0.375728  0  4.009696  0
C  C151  1  0.36222670  0.98931031  0.69620876  1  1.105873  0  0.265622  0.382888  0  3.979516  0
C  C152  1  0.75751092  0.05588865  0.69366860  1  0.478396  0  0.052696  0.097074  0  3.901596  0
C  C153  1  0.65875617  0.03709396  0.69061666  1  -0.022256  0  -0.066536  -0.128511  0  3.888777  0
C  C154  1  0.62153937  0.07935424  0.72204067  1  -0.035287  0  0.022079  0.06224  0  3.911676  0
C  C155  1  0.68559111  0.13911121  0.75509243  1  -0.03387  0  -0.069032  -0.131247  0  3.913927  0
C  C156  1  0.78289205  0.15447265  0.75567543  1  0.45551  0  0.042163  0.088458  0  3.931224  0
C  C157  1  0.12285208  0.86048556  0.63342704  1  0.517842  0  0.039951  0.088427  0  3.926494  0
C  C158  1  0.19122367  0.91536258  0.66587815  1  -0.046096  0  -0.078568  -0.141046  0  3.933053  0
C  C159  1  0.28812214  0.92778695  0.66301031  1  -0.007315  0  0.01355  0.050197  0  3.937111  0
C  C160  1  0.31233395  0.88359857  0.62763160  1  0.028264  0  -0.069531  -0.119859  0  3.900804  0
C  C161  1  0.23954491  0.83020124  0.59623178  1  0.416867  0  0.051405  0.102268  0  3.889672  0
C  C162  1  0.06695792  0.18408049  0.65876835  1  0.491563  0  0.051104  0.100174  0  3.912938  0
C  C163  1  0.10710609  0.22754052  0.63104318  1  -0.045487  0  -0.065358  -0.127994  0  3.907681  0
C  C164  1  0.08611966  0.29540574  0.63005017  1  0.014467  0  0.021755  0.062697  0  3.934558  0
C  C165  1  0.02472114  0.31686336  0.65722207  1  0.007079  0  -0.065707  -0.132705  0  3.905569  0
C  C166  1  0.98842168  0.27068757  0.68450786  1  0.450641  0  0.053652  0.094697  0  3.924909  0
C  C167  1  0.12834266  0.34168310  0.60024417  1  1.105654  0  0.262934  0.381138  0  4.019224  0
C  C168  1  0.22182626  0.35660315  0.54851207  1  1.101928  0  0.267867  0.384765  0  3.998731  0
C  C169  1  0.14127464  0.44018159  0.56860765  1  1.108225  0  0.266189  0.382443  0  3.991507  0
C  C170  1  0.40903428  0.35001789  0.47663070  1  0.434327  0  0.050079  0.093367  0  3.914568  0
C  C171  1  0.35000761  0.37953794  0.50147116  1  0.018441  0  -0.068896  -0.133191  0  3.910402  0
C  C172  1  0.28818076  0.33003798  0.52220514  1  -0.003845  0  0.019484  0.057648  0  3.946599  0
C  C173  1  0.28850869  0.25311891  0.51733061  1  0.0136  0  -0.066088  -0.130229  0  3.912681  0
C  C174  1  0.34826594  0.22761714  0.49134396  1  0.472013  0  0.052237  0.097375  0  3.913572  0
C  C175  1  0.05270630  0.61139424  0.58884396  1  0.435929  0  0.045459  0.092076  0  3.931789  0
C  C176  1  0.07461323  0.54708820  0.59480764  1  0.002557  0  -0.06953  -0.132214  0  3.914561  0
C  C177  1  0.11362915  0.50731054  0.56313168  1  0.001447  0  0.017101  0.057384  0  3.933172  0
C  C178  1  0.12761985  0.53301486  0.52636705  1  -0.054505  0  -0.070316  -0.123015  0  3.913261  0
C  C179  1  0.10356273  0.59792771  0.52281778  1  0.511562  0  0.049025  0.095671  0  3.922522  0
C  C180  1  0.73811288  0.11664037  0.86444714  1  0.447549  0  0.04526  0.09212  0  3.91745  0
C  C181  1  0.74837948  0.05312558  0.83577734  1  0.036548  0  -0.076162  -0.137423  0  3.925259  0
C  C182  1  0.83703453  0.04231929  0.83747864  1  -0.047734  0  0.014152  0.046868  0  3.937337  0
C  C183  1  0.91175077  0.09546667  0.86856393  1  -0.011726  0  -0.069381  -0.128154  0  3.916449  0
C  C184  1  0.89531397  0.15722888  0.89630093  1  0.470919  0  0.049171  0.099874  0  3.898281  0
C  C185  1  0.85076903  0.97764960  0.80553802  1  1.057186  0  0.266042  0.38734  0  3.984734  0
C  C186  1  0.79571399  0.88339354  0.74335238  1  1.107592  0  0.265258  0.386831  0  4.011743  0
C  C187  1  0.93936994  0.90382035  0.77923727  1  1.106221  0  0.259873  0.37607  0  4.014108  0
C  C188  1  0.69396436  0.79736767  0.62894422  1  0.493098  0  0.045331  0.095397  0  3.907777  0
C  C189  1  0.75753751  0.82245045  0.66600457  1  -0.007345  0  -0.073759  -0.136992  0  3.924852  0
C  C190  1  0.72627214  0.84817758  0.70421646  1  -0.068377  0  0.01558  0.047912  0  3.949167  0
C  C191  1  0.63136665  0.84551270  0.70386665  1  -0.037251  0  -0.06829  -0.133423  0  3.904137  0
C  C192  1  0.57162687  0.81737298  0.66548983  1  0.501283  0  0.050139  0.098552  0  3.899634  0
C  C193  1  0.19428736  0.91896570  0.80880419  1  0.480023  0  0.053216  0.097223  0  3.910005  0
C  C194  1  0.10937470  0.93451057  0.81080405  1  -0.012631  0  -0.064835  -0.129912  0  3.898791  0
C  C195  1  0.02994170  0.88691653  0.78047445  1  -0.001829  0  0.018743  0.056413  0  3.934772  0
C  C196  1  0.03926533  0.82482812  0.74948592  1  -0.022903  0  -0.068702  -0.133062  0  3.906296  0
C  C197  1  0.12635996  0.81299810  0.74978145  1  0.425958  0  0.04592  0.091825  0  3.925477  0
C  C198  1  0.24140160  0.69892144  0.81348725  1  0.482704  0  0.049263  0.090503  0  3.935779  0
C  C199  1  0.22687675  0.65192239  0.84162508  1  0.005054  0  -0.065648  -0.130694  0  3.903487  0
C  C200  1  0.29341447  0.67543738  0.87807967  1  -0.043132  0  0.024054  0.068878  0  3.920254  0
C  C201  1  0.37167572  0.74574525  0.88477666  1  -0.029977  0  -0.064279  -0.124424  0  3.896354  0
C  C202  1  0.38005733  0.79018055  0.85552587  1  0.445513  0  0.049801  0.096716  0  3.911853  0
C  C203  1  0.28193675  0.62752891  0.90913417  1  1.168912  0  0.260628  0.378313  0  4.023191  0
C  C204  1  0.19043125  0.53204230  0.93657274  1  1.117117  0  0.26199  0.377173  0  4.016555  0
C  C205  1  0.34411261  0.60110671  0.96596552  1  1.132562  0  0.26425  0.380245  0  4.016981  0
C  C206  1  0.98801455  0.38937606  0.97237020  1  0.460195  0  0.046557  0.094731  0  3.928226  0
C  C207  1  0.07449791  0.44875758  0.97360760  1  -0.012584  0  -0.070623  -0.134215  0  3.926521  0
C  C208  1  0.09868723  0.46932088  0.93625263  1  -0.014691  0  0.019369  0.058934  0  3.939951  0
C  C209  1  0.03599162  0.42817290  0.89869091  1  -0.01208  0  -0.069429  -0.130148  0  3.903752  0
C  C210  1  0.95134128  0.36905402  0.90005212  1  0.480635  0  0.045741  0.095562  0  3.929855  0
C  C211  1  0.58629558  0.69204050  0.03201430  1  0.435499  0  0.048333  0.09434  0  3.923695  0
C  C212  1  0.50967627  0.68113042  0.00263486  1  0.00579  0  -0.066232  -0.128511  0  3.907971  0
C  C213  1  0.42673489  0.61482152  0.99730179  1  0.000742  0  0.019955  0.057449  0  3.938192  0
C  C214  1  0.42401038  0.56200121  0.02197357  1  -0.004037  0  -0.068287  -0.130005  0  3.91214  0
C  C215  1  0.50401489  0.57699089  0.05063118  1  0.46355  0  0.046501  0.088191  0  3.924282  0
C  C216  1  0.58597946  0.74831296  0.14885973  1  0.471638  0  0.045565  0.098296  0  3.919223  0
C  C217  1  0.55884768  0.79645544  0.18079507  1  0.042255  0  -0.073802  -0.13104  0  3.917774  0
C  C218  1  0.62983119  0.85774360  0.21045817  1  0.017603  0  0.014891  0.050285  0  3.941089  0
C  C219  1  0.72599953  0.86941514  0.20604441  1  -0.092288  0  -0.07303  -0.13685  0  3.908307  0
C  C220  1  0.74714245  0.81905171  0.17260856  1  0.463242  0  0.047469  0.097825  0  3.905208  0
C  C221  1  0.60109790  0.90762791  0.24547719  1  1.125321  0  0.263138  0.382904  0  4.01841  0
C  C222  1  0.48276166  0.93737553  0.27805446  1  1.122598  0  0.262902  0.375754  0  4.009727  0
C  C223  1  0.63777134  0.01069062  0.30379031  1  1.105888  0  0.265732  0.383116  0  3.979296  0
C  C224  1  0.24248922  0.94411406  0.30633319  1  0.478268  0  0.052673  0.097056  0  3.901555  0
C  C225  1  0.34124262  0.96290875  0.30938509  1  -0.022364  0  -0.066527  -0.128424  0  3.888465  0
C  C226  1  0.37845842  0.92064610  0.27796075  1  -0.035368  0  0.022049  0.062179  0  3.911441  0
C  C227  1  0.31440761  0.86088972  0.24490909  1  -0.033609  0  -0.069048  -0.131268  0  3.914013  0
C  C228  1  0.21710667  0.84552828  0.24432609  1  0.455414  0  0.042081  0.088345  0  3.931244  0
C  C229  1  0.87714722  0.13951360  0.36657152  1  0.517868  0  0.039953  0.088324  0  3.9266  0
C  C230  1  0.80877546  0.08463776  0.33412056  1  -0.046119  0  -0.078525  -0.14091  0  3.93307  0
C  C231  1  0.71187658  0.07221398  0.33698847  1  -0.007566  0  0.013505  0.050151  0  3.937  0
C  C232  1  0.68766653  0.11640177  0.37236745  1  0.028617  0  -0.069515  -0.119855  0  3.900818  0
C  C233  1  0.76045532  0.16979851  0.40376750  1  0.416791  0  0.051379  0.102262  0  3.889605  0
C  C234  1  0.93303821  0.81591748  0.34123059  1  0.491589  0  0.051182  0.100262  0  3.912946  0
C  C235  1  0.89289096  0.77245804  0.36895617  1  -0.045407  0  -0.065373  -0.128018  0  3.907653  0
C  C236  1  0.91387739  0.70459282  0.36994887  1  0.014215  0  0.021718  0.062682  0  3.934495  0
C  C237  1  0.97527498  0.68313461  0.34277687  1  0.006588  0  -0.065659  -0.132637  0  3.905476  0
C  C238  1  0.01157420  0.72930982  0.31549100  1  0.451103  0  0.053566  0.094569  0  3.924959  0
C  C239  1  0.87165598  0.65831606  0.39975529  1  1.105914  0  0.262948  0.381109  0  4.019169  0
C  C240  1  0.77817330  0.64339659  0.45148840  1  1.101797  0  0.267832  0.38469  0  3.998733  0
C  C241  1  0.85872358  0.55981815  0.43139310  1  1.108295  0  0.266179  0.38244  0  3.991451  0
C  C242  1  0.59096460  0.64998186  0.52336854  1  0.434358  0  0.050052  0.093336  0  3.914573  0
C  C243  1  0.64999262  0.62046180  0.49852841  1  0.018526  0  -0.068967  -0.13327  0  3.910482  0
C  C244  1  0.71181997  0.66996295  0.47779490  1  -0.003834  0  0.019518  0.057763  0  3.946602  0
C  C245  1  0.71149228  0.74688261  0.48266952  1  0.013576  0  -0.066081  -0.130262  0  3.912696  0
C  C246  1  0.65173546  0.77238379  0.50865641  1  0.47201  0  0.052236  0.097441  0  3.913496  0
C  C247  1  0.94729234  0.38860492  0.41115580  1  0.436207  0  0.045526  0.092231  0  3.931785  0
C  C248  1  0.92538515  0.45291036  0.40519265  1  0.002111  0  -0.069513  -0.132178  0  3.914618  0
C  C249  1  0.88636949  0.49268861  0.43686839  1  0.001536  0  0.017134  0.057417  0  3.933082  0
C  C250  1  0.87237787  0.46698370  0.47363322  1  -0.054446  0  -0.070283  -0.122988  0  3.913258  0
C  C251  1  0.89643608  0.40207026  0.47718214  1  0.511723  0  0.048964  0.095643  0  3.922464  0
I  I252  1  0.32340429  0.69376984  0.10535112  1  -0.547663  0  -0.287092  -0.460556  0  1.251306  0
I  I253  1  0.21344571  0.76215353  0.99206789  1  -0.534032  0  -0.315382  -0.450502  0  1.18895  0
I  I254  1  0.52961103  0.03596069  0.18910587  1  -0.529209  0  -0.25368  -0.42181  0  1.329875  0
I  I255  1  0.68350533  0.25546603  0.29657403  1  -0.516053  0  -0.273951  -0.433586  0  1.30312  0
I  I256  1  0.15609322  0.27107804  0.93598686  1  -0.527463  0  -0.275163  -0.439478  0  1.309845  0
I  I257  1  0.33070380  0.44176493  0.86166766  1  -0.526245  0  -0.303098  -0.433436  0  1.237229  0
I  I258  1  0.03778827  0.24590178  0.80224272  1  -0.507045  0  -0.252537  -0.429309  0  1.374751  0
I  I259  1  0.00921013  0.01851913  0.70652899  1  -0.52561  0  -0.236998  -0.411547  0  1.383347  0
I  I260  1  0.63841767  0.34158026  0.42776696  1  -0.520749  0  -0.282212  -0.434082  0  1.320358  0
I  I261  1  0.46974642  0.09090082  0.43511221  1  -0.521279  0  -0.277494  -0.42753  0  1.194036  0
I  I262  1  0.87969364  0.71849497  0.57990815  1  -0.54636  0  -0.276063  -0.462038  0  1.30834  0
I  I263  1  0.07790317  0.76968700  0.48082335  1  -0.523761  0  -0.30188  -0.441553  0  1.194163  0
I  I264  1  0.67659084  0.30622577  0.89464962  1  -0.547653  0  -0.287082  -0.460541  0  1.25137  0
I  I265  1  0.78655409  0.23784681  0.00793266  1  -0.534028  0  -0.315381  -0.450495  0  1.188971  0
I  I266  1  0.47038499  0.96404498  0.81089802  1  -0.529225  0  -0.253677  -0.421851  0  1.329833  0
I  I267  1  0.31649657  0.74453608  0.70342650  1  -0.516013  0  -0.273964  -0.433592  0  1.303106  0
I  I268  1  0.84390842  0.72892822  0.06401420  1  -0.527455  0  -0.275163  -0.439471  0  1.30987  0
I  I269  1  0.66929634  0.55823778  0.13833138  1  -0.526181  0  -0.303116  -0.433457  0  1.237263  0
I  I270  1  0.96221489  0.75409856  0.19775670  1  -0.507065  0  -0.252553  -0.429335  0  1.374756  0
I  I271  1  0.99078850  0.98148003  0.29347078  1  -0.52562  0  -0.237005  -0.411557  0  1.383356  0
I  I272  1  0.36159163  0.65841238  0.57223466  1  -0.520747  0  -0.282221  -0.43409  0  1.320298  0
I  I273  1  0.53025716  0.90909892  0.56488745  1  -0.521336  0  -0.277479  -0.427532  0  1.194007  0
I  I274  1  0.12030751  0.28150537  0.42009001  1  -0.546329  0  -0.276065  -0.462021  0  1.308295  0
I  I275  1  0.92210955  0.23031215  0.51917676  1  -0.523745  0  -0.301912  -0.441571  0  1.194187  0
N  N276  1  0.18934469  0.83176217  0.10597351  1  -1.242237  0  -0.324098  -0.183614  0  3.562067  0
N  N277  1  0.21942650  0.06004169  0.22732345  1  -1.158759  0  -0.295248  -0.385219  0  3.200544  0
N  N278  1  0.12781875  0.13907549  0.25419328  1  -1.176556  0  -0.300443  -0.391706  0  3.21487  0
N  N279  1  0.06755136  0.03739975  0.18992292  1  -1.159963  0  -0.296987  -0.391971  0  3.189074  0
N  N280  1  0.39711777  0.20508951  0.37140448  1  -1.25428  0  -0.325551  -0.186881  0  3.561814  0
N  N281  1  0.79722650  0.14079029  0.22114538  1  -1.249969  0  -0.321692  -0.183662  0  3.54805  0
N  N282  1  0.68389186  0.23277159  0.17958557  1  -1.245993  0  -0.325587  -0.186751  0  3.56939  0
N  N283  1  0.80288360  0.42959341  0.09380048  1  -1.178638  0  -0.297598  -0.39051  0  3.217294  0
N  N284  1  0.73899370  0.45429599  0.03249866  1  -1.180624  0  -0.294884  -0.390991  0  3.220764  0
N  N285  1  0.64201144  0.35532353  0.06206935  1  -1.215931  0  -0.297973  -0.395225  0  3.236028  0
N  N286  1  0.07265223  0.64946286  0.06371419  1  -1.253157  0  -0.329136  -0.192972  0  3.577955  0
N  N287  1  0.41632405  0.35915247  0.94442495  1  -1.242705  0  -0.326698  -0.195008  0  3.567737  0
N  N288  1  0.32173117  0.24101340  0.85524513  1  -1.246059  0  -0.324904  -0.187476  0  3.557971  0
N  N289  1  0.49282209  0.11210618  0.75208072  1  -1.219214  0  -0.299636  -0.388836  0  3.238383  0
N  N290  1  0.45496615  0.00062144  0.69277822  1  -1.170132  0  -0.291509  -0.375085  0  3.169297  0
N  N291  1  0.33071690  0.03146920  0.72743060  1  -1.184652  0  -0.295525  -0.384874  0  3.205752  0
N  N292  1  0.81873290  0.11369659  0.72552657  1  -1.244842  0  -0.325354  -0.188336  0  3.564438  0
N  N293  1  0.14640174  0.81877904  0.59905639  1  -1.268437  0  -0.324468  -0.183976  0  3.552231  0
N  N294  1  0.00889830  0.20529278  0.68527123  1  -1.253322  0  -0.324192  -0.184797  0  3.560614  0
N  N295  1  0.18697876  0.31558101  0.57629837  1  -1.17694  0  -0.295534  -0.391246  0  3.224177  0
N  N296  1  0.19971357  0.41837186  0.54265564  1  -1.162689  0  -0.291476  -0.381189  0  3.19839  0
N  N297  1  0.10574314  0.40546958  0.59880436  1  -1.172611  0  -0.296893  -0.392943  0  3.203036  0
N  N298  1  0.40721735  0.27514815  0.47119837  1  -1.263431  0  -0.325259  -0.186256  0  3.564253  0
N  N299  1  0.06732017  0.63651297  0.55355548  1  -1.259695  0  -0.326049  -0.186778  0  3.573654  0
N  N300  1  0.81065713  0.16823816  0.89402710  1  -1.24228  0  -0.324102  -0.183707  0  3.56225  0
N  N301  1  0.78057164  0.93995628  0.77267767  1  -1.158502  0  -0.295214  -0.385148  0  3.200469  0
N  N302  1  0.87217981  0.86092189  0.74580777  1  -1.176601  0  -0.300459  -0.391655  0  3.214853  0
N  N303  1  0.93244979  0.96260058  0.81007736  1  -1.159906  0  -0.29703  -0.391986  0  3.189071  0
N  N304  1  0.60288456  0.79490728  0.62859477  1  -1.254977  0  -0.325415  -0.186616  0  3.561424  0
N  N305  1  0.20277572  0.85921419  0.77885485  1  -1.250004  0  -0.321757  -0.18364  0  3.548219  0
N  N306  1  0.31610928  0.76722875  0.82041350  1  -1.246047  0  -0.325562  -0.18668  0  3.569178  0
N  N307  1  0.19711821  0.57040693  0.90619921  1  -1.178337  0  -0.297606  -0.390527  0  3.217139  0
N  N308  1  0.26100879  0.54570435  0.96750014  1  -1.180957  0  -0.29488  -0.390914  0  3.220873  0
N  N309  1  0.35799046  0.64467858  0.93793057  1  -1.215922  0  -0.297963  -0.395219  0  3.236  0
N  N310  1  0.92734875  0.35053866  0.93628594  1  -1.253122  0  -0.329184  -0.19292  0  3.57798  0
N  N311  1  0.58367709  0.64084787  0.05557473  1  -1.242988  0  -0.326713  -0.195028  0  3.567629  0
N  N312  1  0.67826554  0.75898753  0.14475543  1  -1.246012  0  -0.324833  -0.187348  0  3.557831  0
N  N313  1  0.50717411  0.88789356  0.24791997  1  -1.219515  0  -0.299657  -0.388889  0  3.238645  0
N  N314  1  0.54503207  0.99937831  0.30722222  1  -1.17014  0  -0.291549  -0.375198  0  3.169268  0
N  N315  1  0.66927871  0.96853232  0.27256757  1  -1.184563  0  -0.295602  -0.384962  0  3.205786  0
N  N316  1  0.18126472  0.88630493  0.27447470  1  -1.244722  0  -0.325279  -0.188297  0  3.564506  0
N  N317  1  0.85359916  0.18122070  0.40094259  1  -1.26846  0  -0.324425  -0.183892  0  3.552097  0
N  N318  1  0.99109716  0.79470519  0.31472800  1  -1.25329  0  -0.324178  -0.184684  0  3.560635  0
N  N319  1  0.81302105  0.68441933  0.42370157  1  -1.176914  0  -0.295534  -0.391248  0  3.224119  0
N  N320  1  0.80028573  0.58162730  0.45734414  1  -1.162632  0  -0.291446  -0.381154  0  3.198399  0
N  N321  1  0.89425457  0.59452899  0.40119530  1  -1.172882  0  -0.296881  -0.39288  0  3.202936  0
N  N322  1  0.59278287  0.72485160  0.52880181  1  -1.263433  0  -0.325275  -0.186321  0  3.564267  0
N  N323  1  0.93267914  0.36348619  0.44644460  1  -1.25946  0  -0.326065  -0.186817  0  3.573596  0
