# generated using pymatgen
data_Zn4H39C68N20O8F
_symmetry_space_group_name_H-M   'P 1'
_cell_length_a   16.22744170
_cell_length_b   16.34770503
_cell_length_c   19.21446191
_cell_angle_alpha   99.56868792
_cell_angle_beta   117.92050821
_cell_angle_gamma   102.77348651
_symmetry_Int_Tables_number   1
_chemical_formula_structural   Zn4H39C68N20O8F
_chemical_formula_sum   'Zn4 H39 C68 N20 O8 F1'
_cell_volume   4171.68017779
_cell_formula_units_Z   1
loop_
 _symmetry_equiv_pos_site_id
 _symmetry_equiv_pos_as_xyz
  1  'x, y, z'
loop_
 _atom_site_type_symbol
 _atom_site_label
 _atom_site_symmetry_multiplicity
 _atom_site_fract_x
 _atom_site_fract_y
 _atom_site_fract_z
 _atom_site_occupancy
 _atom_site_pbe_bader_charge
 _atom_site_pbe_bader_spin_density
 _atom_site_pbe_cm5_charge
 _atom_site_pbe_ddec_charge
 _atom_site_pbe_ddec_spin_density
 _atom_site_pbe_ddec_sum_bond_order
 _atom_site_pbe_magmom
Zn  Zn0  1  0.65199955  0.07637400  0.99007158  1  1.215466  0  0.73304  0.61362  0  2.492737  0
Zn  Zn1  1  0.34401108  0.87537941  0.00142373  1  1.178934  0  0.748424  0.597595  0  2.519661  0
Zn  Zn2  1  0.57052122  0.98349253  0.12776923  1  1.174353  0  0.78465  0.70193  0  2.27782  0
Zn  Zn3  1  0.40232205  0.99837873  0.90052822  1  1.188968  0  0.738717  0.616298  0  2.447079  0
H  H4  1  0.15829911  0.70577031  0.83652498  1  0.09589  0  0.121055  0.110075  0  0.99199  0
H  H5  1  0.67741756  0.85396373  0.06911832  1  0.14472  0  0.12462  0.115924  0  0.994312  0
H  H6  1  0.35404068  0.83740579  0.75257092  1  0.115035  0  0.107221  0.088363  0  1.069597  0
H  H7  1  0.36186123  0.71410954  0.89670168  1  0.12461  0  0.117418  0.100937  0  1.012134  0
H  H8  1  0.67395572  0.92971305  0.87527648  1  0.115714  0  0.111363  0.097859  0  1.041844  0
H  H9  1  0.21917182  0.89312674  0.71739198  1  0.11461  0  0.126181  0.115999  0  0.978861  0
H  H10  1  0.94416334  0.98359851  0.13860466  1  0.101579  0  0.120199  0.118119  0  0.977819  0
H  H11  1  0.67258266  0.25947830  0.94948650  1  0.116702  0  0.122002  0.11416  0  1.014805  0
H  H12  1  0.29661195  0.78249552  0.13728808  1  0.089723  0  0.123753  0.113976  0  0.986998  0
H  H13  1  0.71813149  0.14546958  0.28981900  1  0.099136  0  0.119741  0.106729  0  1.000571  0
H  H14  1  0.37230434  0.16943530  0.96231196  1  0.099504  0  0.113901  0.103404  0  1.029846  0
H  H15  1  0.23739109  0.98913838  0.05079937  1  0.103898  0  0.117535  0.109107  0  0.994331  0
H  H16  1  0.76046017  0.25754367  0.11529168  1  0.103222  0  0.126491  0.118942  0  0.988285  0
H  H17  1  0.35261445  0.16590823  0.83418897  1  0.049199  0  0.115643  0.097122  0  1.019857  0
H  H18  1  0.59475070  0.97150734  0.29846602  1  0.061864  0  0.119856  0.106063  0  0.999613  0
H  H19  1  0.32513495  0.73973415  0.49513465  1  0.069903  0  0.096931  0.095537  0  1.009556  0
H  H20  1  0.34149334  0.76024366  0.63122651  1  0.036199  0  0.091261  0.08745  0  1.038068  0
H  H21  1  0.65980179  0.87085115  0.75106190  1  0.082563  0  0.098023  0.105503  0  1.031103  0
H  H22  1  0.64312091  0.84737807  0.61531388  1  0.055064  0  0.100912  0.099916  0  1.000531  0
H  H23  1  0.59079636  0.93438272  0.53283357  1  0.097782  0  0.102356  0.102654  0  1.004326  0
H  H24  1  0.57480280  0.96727370  0.40813142  1  0.036403  0  0.096959  0.093783  0  1.009642  0
H  H25  1  0.33772860  0.71716738  0.25598900  1  0.023913  0  0.098418  0.09727  0  1.003089  0
H  H26  1  0.35263050  0.68532754  0.38147611  1  0.071713  0  0.101945  0.101908  0  0.996893  0
H  H27  1  0.93357333  0.49112822  0.56629407  1  0.057403  0  0.102743  0.101818  0  1.000215  0
H  H28  1  0.01575832  0.61550798  0.69491980  1  0.052743  0  0.101924  0.101842  0  0.998338  0
H  H29  1  0.18843068  0.76004756  0.61106024  1  0.048868  0  0.099589  0.096515  0  1.016493  0
H  H30  1  0.10689997  0.63591291  0.48317307  1  0.080436  0  0.105489  0.108443  0  0.988429  0
H  H31  1  0.82546086  0.40724126  0.22711836  1  0.112772  0  0.117277  0.135633  0  0.986331  0
H  H32  1  0.88333721  0.25056697  0.39349188  1  0.063968  0  0.104159  0.104257  0  0.994881  0
H  H33  1  0.98688704  0.38669869  0.51235795  1  0.080846  0  0.105997  0.106003  0  0.995643  0
H  H34  1  0.39052581  0.59057602  0.86457025  1  0.041009  0  0.100378  0.101895  0  1.01192  0
H  H35  1  0.70749895  0.72370645  0.02213909  1  0.074551  0  0.105962  0.109243  0  0.994242  0
H  H36  1  0.32258925  0.42979345  0.80177087  1  0.079546  0  0.103025  0.103672  0  0.993595  0
H  H37  1  0.73399177  0.58219200  0.00801054  1  0.085329  0  0.108892  0.114656  0  0.991719  0
H  H38  1  0.34550047  0.28601906  0.79800532  1  0.06562  0  0.102545  0.104466  0  1.003705  0
H  H39  1  0.09392705  0.91335056  0.80968731  1  0.120066  0  0.107086  0.128496  0  1.02363  0
H  H40  1  0.13398644  0.19125467  0.86223252  1  0.080379  0  0.110299  0.123967  0  0.986941  0
H  H41  1  0.20248449  0.19556762  0.00964809  1  0.066879  0  0.109215  0.091426  0  0.943006  0
H  H42  1  0.08718035  0.14050049  0.05447945  1  0.076265  0  0.110503  0.124103  0  0.98373  0
C  C43  1  0.83958399  0.07157785  0.99468905  1  0.773696  0  0.166149  0.067674  0  4.010595  0
C  C44  1  0.18319689  0.76266585  0.82006915  1  0.41373  0  0.008527  -0.059912  0  3.994481  0
C  C45  1  0.59685740  0.83031037  0.03229408  1  0.375929  0  0.021602  -0.022424  0  3.924656  0
C  C46  1  0.43365635  0.86865861  0.79408015  1  0.370648  0  0.002405  -0.053614  0  3.97174  0
C  C47  1  0.43578775  0.75926812  0.94436735  1  0.410628  0  0.016728  -0.027297  0  3.956648  0
C  C48  1  0.59681616  0.91594430  0.85670509  1  0.399081  0  0.011289  -0.029382  0  3.932714  0
C  C49  1  0.21509799  0.85781121  0.75948471  1  0.384534  0  0.012509  -0.050118  0  3.98164  0
C  C50  1  0.90255264  0.01423560  0.09453291  1  0.445156  0  0.000803  -0.057796  0  4.008986  0
C  C51  1  0.91337972  0.03349407  0.03018945  1  -0.019753  0  -0.030224  -0.080286  0  4.049731  0
C  C52  1  0.16226996  0.76896312  0.74172874  1  0.00696  0  -0.033031  -0.041582  0  4.087424  0
C  C53  1  0.52886892  0.74954137  0.97039576  1  0.014926  0  -0.026932  -0.02736  0  4.032377  0
C  C54  1  0.51043487  0.86082622  0.78134789  1  0.025115  0  -0.033733  -0.033975  0  4.050849  0
C  C55  1  0.59469753  0.22505598  0.92491449  1  0.431268  0  0.013915  -0.033449  0  3.937417  0
C  C56  1  0.36958536  0.83186986  0.16539631  1  0.404262  0  0.014952  -0.044088  0  3.965234  0
C  C57  1  0.71918053  0.15932132  0.23683027  1  0.407194  0  0.01069  -0.053699  0  3.990606  0
C  C58  1  0.35155838  0.11838635  0.98642405  1  0.385882  0  0.004875  -0.037242  0  3.960909  0
C  C59  1  0.28249124  0.02643501  0.03136492  1  0.369609  0  0.004042  -0.048781  0  3.976633  0
C  C60  1  0.73909201  0.21658085  0.14728852  1  0.48439  0  0.024851  -0.021815  0  3.920405  0
C  C61  1  0.43148661  0.17625004  0.86450329  1  0.395405  0  0.008017  -0.054405  0  3.997149  0
C  C62  1  0.52085944  0.92928568  0.24781872  1  0.384682  0  0.009791  -0.049003  0  3.987772  0
C  C63  1  0.51172700  0.25243175  0.88882773  1  0.070151  0  -0.039818  -0.044816  0  4.080152  0
C  C64  1  0.44767135  0.86629739  0.24907609  1  0.075012  0  -0.031498  -0.02684  0  4.079659  0
C  C65  1  0.77128959  0.23665057  0.23204089  1  -0.000424  0  -0.030642  -0.033905  0  4.068352  0
C  C66  1  0.27420961  0.09863853  0.00164223  1  0.005176  0  -0.036347  -0.023838  0  3.989539  0
C  C67  1  0.39900888  0.76718341  0.55124107  1  -0.065038  0  -0.096392  -0.131186  0  4.012258  0
C  C68  1  0.40844019  0.77985876  0.62851614  1  -0.048898  0  -0.101156  -0.138769  0  4.000258  0
C  C69  1  0.50157075  0.82320301  0.70240306  1  0.001657  0  -0.008276  0.088094  0  4.026025  0
C  C70  1  0.58588160  0.84189442  0.69550546  1  -0.03721  0  -0.091782  -0.118726  0  3.966863  0
C  C71  1  0.57643519  0.82902106  0.61854473  1  -0.074216  0  -0.093272  -0.128377  0  4.011064  0
C  C72  1  0.48260966  0.79680286  0.54485314  1  0.018785  0  -0.016448  0.051679  0  4.029746  0
C  C73  1  0.53660379  0.88562456  0.47216846  1  -0.081071  0  -0.092971  -0.128439  0  4.003459  0
C  C74  1  0.52718925  0.90416421  0.40154529  1  -0.022728  0  -0.098158  -0.133385  0  4.018304  0
C  C75  1  0.45506077  0.84465291  0.32211000  1  -0.027894  0  -0.015659  0.072647  0  4.067934  0
C  C76  1  0.39298769  0.76561298  0.31669155  1  -0.01211  0  -0.09678  -0.135194  0  4.003228  0
C  C77  1  0.40170651  0.74740748  0.38773539  1  -0.068055  0  -0.09147  -0.127033  0  3.996541  0
C  C78  1  0.47369348  0.80715058  0.46709402  1  0.007982  0  -0.008692  0.067968  0  4.010318  0
C  C79  1  0.99075944  0.54974219  0.57668051  1  -0.026582  0  -0.090731  -0.123289  0  3.997444  0
C  C80  1  0.03687796  0.62000070  0.64911400  1  -0.055772  0  -0.093938  -0.132497  0  4.001953  0
C  C81  1  0.10872861  0.69738204  0.66319162  1  0.010381  0  -0.009775  0.085231  0  4.050384  0
C  C82  1  0.13177324  0.70136495  0.60139518  1  -0.020519  0  -0.091238  -0.128126  0  3.976109  0
C  C83  1  0.08549207  0.63100881  0.52877051  1  -0.025747  0  -0.088885  -0.114123  0  3.986145  0
C  C84  1  0.01378422  0.55365814  0.51496594  1  -0.027327  0  -0.011384  0.063736  0  4.019986  0
C  C85  1  0.91758498  0.47669690  0.35752806  1  0.151841  0  0.079675  0.037667  0  3.922668  0
C  C86  1  0.85962277  0.40058124  0.28910101  1  0.079763  0  -0.076917  -0.17037  0  3.913002  0
C  C87  1  0.84112221  0.31755118  0.30079429  1  -0.035438  0  -0.000912  0.104219  0  4.037542  0
C  C88  1  0.89056977  0.31444296  0.38263094  1  -0.025541  0  -0.087839  -0.126327  0  3.983704  0
C  C89  1  0.94886115  0.39111422  0.44970197  1  -0.043167  0  -0.087047  -0.118996  0  4.007514  0
C  C90  1  0.96119492  0.47565392  0.44004062  1  0.015961  0  0.000246  0.02156  0  3.981156  0
C  C91  1  0.54597387  0.66773202  0.94789931  1  0.047555  0  -0.004712  0.091706  0  4.05203  0
C  C92  1  0.50503649  0.33903045  0.88387209  1  0.092111  0  -0.00311  0.044429  0  4.041503  0
C  C93  1  0.39691066  0.42669058  0.83732748  1  -0.07675  0  -0.090775  -0.131962  0  4.023129  0
C  C94  1  0.40977910  0.34641071  0.83577821  1  -0.054047  0  -0.093228  -0.128166  0  4.013212  0
C  C95  1  0.58489645  0.41803869  0.92812518  1  0.126385  0  0.074269  -0.028731  0  3.887899  0
C  C96  1  0.57665785  0.50277756  0.93043499  1  -0.005101  0  -0.004618  0.031656  0  4.001636  0
C  C97  1  0.47881181  0.50690403  0.88601806  1  0.02431  0  -0.006861  0.088863  0  4.035237  0
C  C98  1  0.46627659  0.58981046  0.89592159  1  -0.019194  0  -0.090235  -0.185464  0  3.943542  0
C  C99  1  0.64332085  0.66306557  0.98520489  1  -0.102891  0  -0.082188  -0.110894  0  3.964687  0
C  C100  1  0.65841240  0.58327429  0.97713738  1  0.038775  0  -0.088132  -0.123498  0  3.986146  0
C  C101  1  0.11968395  0.05387456  0.82967239  1  -0.234399  0  -0.050214  -0.040348  0  3.854306  0
C  C102  1  0.97349432  0.01212154  0.99618866  1  0.097659  0  0.006131  0.087202  0  4.031792  0
C  C103  1  0.97407110  0.91437253  0.88616497  1  0.475034  0  0.108576  0.204681  0  4.050177  0
C  C104  1  0.93830474  0.92893868  0.93896704  1  0.231314  0  0.066044  -0.094928  0  3.95152  0
C  C105  1  0.05662667  0.07650051  0.00769585  1  0.042211  0  -0.088564  -0.192541  0  3.962781  0
C  C106  1  0.09468507  0.06160229  0.95730229  1  -0.021354  0  0.010244  0.083334  0  3.840799  0
C  C107  1  0.04798099  0.98107139  0.89084863  1  0.079166  0  -0.00942  -0.023194  0  3.982811  0
C  C108  1  0.08564759  0.97408812  0.83384183  1  -0.003422  0  -0.091654  -0.142685  0  4.010614  0
C  C109  1  0.15178079  0.13476402  0.88036669  1  0.028723  0  -0.088869  -0.14396  0  3.929654  0
C  C110  1  0.18678022  0.13111501  0.96878859  1  0.049188  0  -0.052494  -0.003183  0  3.846097  0
N  N111  1  0.79052984  0.07332498  0.03545462  1  -0.765942  0  -0.261049  -0.208389  0  3.628047  0
N  N112  1  0.24507885  0.84083654  0.87926824  1  -0.818948  0  -0.276777  -0.177219  0  3.573349  0
N  N113  1  0.54661667  0.88214426  0.04259537  1  -0.816786  0  -0.291655  -0.203924  0  3.657523  0
N  N114  1  0.47157395  0.92556648  0.86983189  1  -0.809843  0  -0.283645  -0.182882  0  3.614859  0
N  N115  1  0.44752018  0.83803657  0.98858369  1  -0.812056  0  -0.289353  -0.200069  0  3.670612  0
N  N116  1  0.57262491  0.95467246  0.90867907  1  -0.806996  0  -0.283211  -0.186699  0  3.592227  0
N  N117  1  0.26555462  0.90036057  0.84166390  1  -0.809445  0  -0.272143  -0.179906  0  3.499903  0
N  N118  1  0.82860392  0.03806927  0.09682581  1  -0.610598  0  -0.240645  -0.180766  0  3.202966  0
N  N119  1  0.56574517  0.14109994  0.92368674  1  -0.799647  0  -0.265985  -0.151045  0  3.531569  0
N  N120  1  0.39484190  0.87102650  0.11844939  1  -0.792883  0  -0.273595  -0.170852  0  3.574865  0
N  N121  1  0.66221367  0.09827469  0.16090252  1  -0.837502  0  -0.290379  -0.18789  0  3.697093  0
N  N122  1  0.39963907  0.05935244  0.00168030  1  -0.782573  0  -0.292454  -0.222719  0  3.526973  0
N  N123  1  0.35705542  0.00305909  0.03056628  1  -0.804777  0  -0.296981  -0.209409  0  3.621171  0
N  N124  1  0.67479632  0.13347624  0.10531853  1  -0.766395  0  -0.259137  -0.168637  0  3.53307  0
N  N125  1  0.46449925  0.11060702  0.88609926  1  -0.781254  0  -0.275149  -0.172497  0  3.558037  0
N  N126  1  0.48881973  0.93181918  0.16986132  1  -0.808491  0  -0.291323  -0.202323  0  3.637777  0
N  N127  1  0.80983912  0.10223591  0.92431204  1  0.278415  0  0.045286  0.505329  0  4.257611  0
N  N128  1  0.92575685  0.56112379  0.33874237  1  0.392625  0  0.056551  0.518644  0  4.222489  0
N  N129  1  0.68562560  0.41662684  0.98204896  1  0.385846  0  0.059757  0.530894  0  4.222388  0
N  N130  1  0.85618048  0.85744003  0.92853373  1  0.394513  0  0.060834  0.5377  0  4.231259  0
O  O131  1  0.74059348  0.13289488  0.90503504  1  -0.49541  0  -0.154299  -0.366071  0  1.941338  0
O  O132  1  0.85273348  0.09601256  0.88535522  1  -0.446421  0  -0.14882  -0.341527  0  1.879862  0
O  O133  1  0.90287678  0.61603143  0.37203778  1  -0.439653  0  -0.133639  -0.329757  0  1.880612  0
O  O134  1  0.95407892  0.57032139  0.28980147  1  -0.450537  0  -0.146987  -0.344315  0  1.849303  0
O  O135  1  0.70889662  0.41347749  0.05264843  1  -0.44749  0  -0.132283  -0.341353  0  1.882307  0
O  O136  1  0.73999334  0.41893171  0.95334094  1  -0.424558  0  -0.127299  -0.324673  0  1.85007  0
O  O137  1  0.77445912  0.83432000  0.86359010  1  -0.429052  0  -0.110108  -0.314572  0  1.930096  0
O  O138  1  0.87521932  0.82582745  0.98623201  1  -0.444343  0  -0.124647  -0.323545  0  1.866194  0
F  F139  1  0.93333883  0.83429972  0.82791634  1  -0.620736  0  -0.093877  -0.120531  0  1.33333  0
