# generated using pymatgen
data_Sm2ZnH20C32(NO5)4
_symmetry_space_group_name_H-M   'P 1'
_cell_length_a   13.55602338
_cell_length_b   13.32352492
_cell_length_c   15.29998823
_cell_angle_alpha   115.80978920
_cell_angle_beta   116.29419591
_cell_angle_gamma   89.99932988
_symmetry_Int_Tables_number   1
_chemical_formula_structural   Sm2ZnH20C32(NO5)4
_chemical_formula_sum   'Sm4 Zn2 H40 C64 N8 O40'
_cell_volume   2165.71848073
_cell_formula_units_Z   2
loop_
 _symmetry_equiv_pos_site_id
 _symmetry_equiv_pos_as_xyz
  1  'x, y, z'
loop_
 _atom_site_type_symbol
 _atom_site_label
 _atom_site_symmetry_multiplicity
 _atom_site_fract_x
 _atom_site_fract_y
 _atom_site_fract_z
 _atom_site_occupancy
 _atom_site_pbe_bader_charge
 _atom_site_pbe_bader_spin_density
 _atom_site_pbe_cm5_charge
 _atom_site_pbe_ddec_charge
 _atom_site_pbe_ddec_spin_density
 _atom_site_pbe_ddec_sum_bond_order
 _atom_site_pbe_magmom
Sm  Sm0  1  0.54479245  0.58418918  0.30647293  1  2.192877  0  1.513335  2.042426  0  2.149058  0
Sm  Sm1  1  0.23829647  0.41577406  0.69347306  1  2.193477  0  1.513403  2.042817  0  2.147713  0
Sm  Sm2  1  0.04470229  0.72217376  0.30639287  1  2.195105  0  1.513933  2.043085  0  2.148318  0
Sm  Sm3  1  0.73830760  0.27785455  0.69353488  1  2.194225  0  1.513698  2.042195  0  2.148814  0
Zn  Zn4  1  0.88251651  0.49993673  0.99995831  1  1.366891  0  0.742222  1.03461  0  2.145728  0
Zn  Zn5  1  0.38233240  0.50001765  0.99999455  1  1.36621  0  0.742296  1.03428  0  2.146322  0
H  H6  1  0.92314413  0.80265986  0.98060986  1  0.13879  0  0.110445  0.112701  0  1.035311  0
H  H7  1  0.94256505  0.19746591  0.01943976  1  0.13913  0  0.11046  0.112278  0  1.035321  0
H  H8  1  0.42319777  0.17794834  0.98064111  1  0.137104  0  0.110587  0.112702  0  1.034691  0
H  H9  1  0.44249109  0.82199993  0.01939934  1  0.144636  0  0.110513  0.1123  0  1.03536  0
H  H10  1  0.69745692  0.55735945  0.63565383  1  0.152272  0  0.118451  0.130511  0  0.993885  0
H  H11  1  0.06181969  0.44271889  0.36444165  1  0.143805  0  0.118378  0.130269  0  0.994469  0
H  H12  1  0.19758920  0.07825281  0.63561507  1  0.150251  0  0.11824  0.130227  0  0.994084  0
H  H13  1  0.56201420  0.92183260  0.36448574  1  0.153449  0  0.118143  0.130123  0  0.994482  0
H  H14  1  0.75392599  0.91881055  0.74040423  1  0.112722  0  0.11915  0.132744  0  0.984485  0
H  H15  1  0.01338458  0.08121205  0.25952047  1  0.110495  0  0.119456  0.132691  0  0.984528  0
H  H16  1  0.25390439  0.82165974  0.74051598  1  0.117691  0  0.119279  0.132253  0  0.983802  0
H  H17  1  0.51340016  0.17838119  0.25956180  1  0.120389  0  0.119425  0.132788  0  0.98412  0
H  H18  1  0.40677262  0.59203983  0.39866755  1  0.616201  0  0.333317  0.40454  0  0.875741  0
H  H19  1  0.00825145  0.40803571  0.60137540  1  0.612602  0  0.333345  0.404856  0  0.875564  0
H  H20  1  0.90676950  0.80657044  0.39867125  1  0.631996  0  0.333337  0.404466  0  0.875779  0
H  H21  1  0.50823056  0.19335770  0.60142094  1  0.608289  0  0.333184  0.403931  0  0.876256  0
H  H22  1  0.46972202  0.71793117  0.44442166  1  0.634709  0  0.298381  0.37831  0  0.965627  0
H  H23  1  0.02539429  0.28209905  0.55555154  1  0.645256  0  0.298037  0.377618  0  0.966693  0
H  H24  1  0.96988279  0.72649858  0.44445813  1  0.639485  0  0.297991  0.377429  0  0.967083  0
H  H25  1  0.52539689  0.27342339  0.55555452  1  0.636366  0  0.297396  0.375993  0  0.968886  0
H  H26  1  0.74103285  0.78724586  0.47802005  1  0.635106  0  0.336038  0.427301  0  0.857819  0
H  H27  1  0.26301903  0.21276029  0.52195652  1  0.649607  0  0.335904  0.427685  0  0.857483  0
H  H28  1  0.24110179  0.69065626  0.47799655  1  0.645623  0  0.336419  0.427849  0  0.857004  0
H  H29  1  0.76316843  0.30937775  0.52200270  1  0.648369  0  0.335986  0.427448  0  0.857521  0
H  H30  1  0.79357012  0.71127440  0.40176950  1  0.653443  0  0.304622  0.425329  0  0.894505  0
H  H31  1  0.39183269  0.28863882  0.59829265  1  0.668261  0  0.304412  0.424787  0  0.895184  0
H  H32  1  0.29346624  0.69035816  0.40160909  1  0.658406  0  0.304824  0.425376  0  0.894354  0
H  H33  1  0.89190783  0.30974216  0.59837997  1  0.663923  0  0.30427  0.424561  0  0.89561  0
H  H34  1  0.67204059  0.43403802  0.02831960  1  0.120887  0  0.11319  0.120875  0  1.007654  0
H  H35  1  0.64372588  0.56596015  0.97177014  1  0.118725  0  0.113202  0.121206  0  1.006993  0
H  H36  1  0.17200773  0.59420769  0.02816595  1  0.114599  0  0.113085  0.120241  0  1.008615  0
H  H37  1  0.14367593  0.40587535  0.97198457  1  0.114898  0  0.112925  0.120359  0  1.0081  0
H  H38  1  0.67361368  0.23522327  0.18730968  1  0.114147  0  0.116489  0.12562  0  0.993618  0
H  H39  1  0.48633795  0.76474868  0.81267481  1  0.122704  0  0.116446  0.126158  0  0.993667  0
H  H40  1  0.17361700  0.95206367  0.18735957  1  0.12909  0  0.116606  0.125725  0  0.993183  0
H  H41  1  0.98632622  0.04785463  0.81250694  1  0.131588  0  0.116809  0.126065  0  0.993001  0
H  H42  1  0.69364743  0.08035834  0.88433572  1  0.123578  0  0.114196  0.119524  0  1.02257  0
H  H43  1  0.80923415  0.91960621  0.11563705  1  0.128098  0  0.113979  0.119498  0  1.023031  0
H  H44  1  0.19370226  0.80408258  0.88438921  1  0.129569  0  0.114394  0.119245  0  1.022635  0
H  H45  1  0.30923558  0.19586790  0.11547850  1  0.136297  0  0.113702  0.118751  0  1.023423  0
C  C46  1  0.69829639  0.26962929  0.86040021  1  1.515256  0  0.213631  0.611519  0  4.147914  0
C  C47  1  0.83789306  0.73036894  0.13957857  1  1.532625  0  0.213421  0.610494  0  4.14828  0
C  C48  1  0.19834156  0.59083022  0.86042098  1  1.508732  0  0.213685  0.611132  0  4.146858  0
C  C49  1  0.33789777  0.40916637  0.13955531  1  1.515708  0  0.213628  0.610799  0  4.14655  0
C  C50  1  0.86676273  0.78285206  0.89492324  1  -0.040271  0  -0.0617  -0.124774  0  3.882608  0
C  C51  1  0.97186278  0.21718149  0.10510388  1  -0.066632  0  -0.06136  -0.123033  0  3.881973  0
C  C52  1  0.36684151  0.11207729  0.89493658  1  -0.009023  0  -0.061571  -0.124201  0  3.882216  0
C  C53  1  0.47184710  0.88792072  0.10509708  1  -0.039994  0  -0.061218  -0.123516  0  3.883478  0
C  C54  1  0.71909801  0.73439244  0.67507074  1  -0.06565  0  -0.013368  -0.025325  0  3.977652  0
C  C55  1  0.04406081  0.26562174  0.32492281  1  -0.047924  0  -0.013517  -0.026094  0  3.977958  0
C  C56  1  0.21915588  0.94069672  0.67508102  1  -0.077018  0  -0.013088  -0.024937  0  3.975821  0
C  C57  1  0.54411957  0.05933309  0.32493589  1  0.026597  0  -0.013132  -0.025227  0  3.976465  0
C  C58  1  0.81261123  0.66969737  0.81080081  1  0.014415  0  -0.014426  -0.038846  0  3.976225  0
C  C59  1  0.00191794  0.33036760  0.18925869  1  0.042706  0  -0.015144  -0.040252  0  3.975511  0
C  C60  1  0.31268451  0.14114695  0.81080841  1  -0.006375  0  -0.014537  -0.039443  0  3.976407  0
C  C61  1  0.50190910  0.85887955  0.18925127  1  0.012622  0  -0.015309  -0.040557  0  3.977166  0
C  C62  1  0.73999601  0.64569434  0.70112310  1  -0.029047  0  -0.05801  -0.068063  0  3.868774  0
C  C63  1  0.03900514  0.35439406  0.29894713  1  -0.022788  0  -0.057185  -0.06671  0  3.868073  0
C  C64  1  0.24011233  0.05545040  0.70112982  1  -0.05501  0  -0.058289  -0.068693  0  3.869721  0
C  C65  1  0.53901554  0.94459537  0.29893729  1  -0.06704  0  -0.057125  -0.067006  0  3.869393  0
C  C66  1  0.82310426  0.57212969  0.83522033  1  1.576487  0  0.239513  0.644829  0  4.128366  0
C  C67  1  0.98790969  0.42791040  0.16479115  1  1.568621  0  0.239432  0.644014  0  4.128976  0
C  C68  1  0.32305754  0.26313819  0.83516100  1  1.587624  0  0.238985  0.644853  0  4.126977  0
C  C69  1  0.48797216  0.73689940  0.16491836  1  1.58012  0  0.238551  0.643681  0  4.12927  0
C  C70  1  0.77154591  0.84853285  0.75923072  1  -0.017089  0  -0.056778  -0.129476  0  3.861534  0
C  C71  1  0.01231461  0.15151325  0.24073112  1  -0.016507  0  -0.056831  -0.128704  0  3.862223  0
C  C72  1  0.27164163  0.91071951  0.75924464  1  0.023459  0  -0.056363  -0.128073  0  3.858001  0
C  C73  1  0.51240016  0.08929367  0.24075555  1  -0.068373  0  -0.056749  -0.129264  0  3.859925  0
C  C74  1  0.84522472  0.87254942  0.86913397  1  0.366586  0  0.085711  0.151303  0  4.048574  0
C  C75  1  0.97602192  0.12745074  0.13081780  1  0.372631  0  0.084833  0.149846  0  4.048052  0
C  C76  1  0.34528809  0.99659294  0.86914120  1  0.333131  0  0.085042  0.151027  0  4.046925  0
C  C77  1  0.47611717  0.00339609  0.13085267  1  0.343036  0  0.085102  0.151358  0  4.047283  0
C  C78  1  0.63712876  0.70270942  0.55729589  1  1.545943  0  0.201753  0.570767  0  4.238544  0
C  C79  1  0.07981551  0.29723294  0.44268191  1  1.53033  0  0.201667  0.5706  0  4.237647  0
C  C80  1  0.13714263  0.85459998  0.55730637  1  1.540512  0  0.201436  0.570242  0  4.240806  0
C  C81  1  0.57990367  0.14544965  0.44270741  1  1.529907  0  0.201028  0.569733  0  4.239428  0
C  C82  1  0.64074582  0.43801086  0.19135989  1  1.521523  0  0.192444  0.583372  0  4.204513  0
C  C83  1  0.44938104  0.56198496  0.80864368  1  1.543483  0  0.192362  0.58277  0  4.20635  0
C  C84  1  0.14057200  0.75315991  0.19118880  1  1.529602  0  0.193393  0.583882  0  4.204643  0
C  C85  1  0.94932256  0.24676740  0.80881068  1  1.543362  0  0.193005  0.583036  0  4.206032  0
C  C86  1  0.67671619  0.35349716  0.03040630  1  -0.035626  0  -0.059933  -0.074173  0  3.870988  0
C  C87  1  0.64628189  0.64647517  0.96960693  1  -0.038789  0  -0.059808  -0.073901  0  3.869781  0
C  C88  1  0.17669626  0.67689248  0.03035929  1  -0.015467  0  -0.059741  -0.073502  0  3.868761  0
C  C89  1  0.14622883  0.32311877  0.96965507  1  -0.027123  0  -0.05968  -0.073567  0  3.869261  0
C  C90  1  0.68828500  0.25958791  0.94907345  1  0.005348  0  -0.012068  -0.027791  0  3.973567  0
C  C91  1  0.73917580  0.74037760  0.05088950  1  0.004279  0  -0.011971  -0.027543  0  3.972602  0
C  C92  1  0.18831085  0.68953015  0.94906267  1  -0.020014  0  -0.01207  -0.027869  0  3.971507  0
C  C93  1  0.23920044  0.31045082  0.05087281  1  -0.008673  0  -0.01213  -0.028424  0  3.972873  0
C  C94  1  0.66817297  0.34359135  0.11416953  1  0.029341  0  -0.010157  -0.01373  0  3.965683  0
C  C95  1  0.55398345  0.65640334  0.88585196  1  -0.002973  0  -0.010302  -0.014534  0  3.966539  0
C  C96  1  0.16811548  0.77052244  0.11412009  1  0.03921  0  -0.010641  -0.013753  0  3.963028  0
C  C97  1  0.05394272  0.22945201  0.88588118  1  0.030953  0  -0.010018  -0.013272  0  3.964032  0
C  C98  1  0.67745502  0.24222637  0.12049000  1  -0.053908  0  -0.055146  -0.126521  0  3.870309  0
C  C99  1  0.55694780  0.75775522  0.87949859  1  0.017035  0  -0.055052  -0.12704  0  3.871655  0
C  C100  1  0.17744322  0.87825990  0.12049722  1  -0.035664  0  -0.055106  -0.126857  0  3.8693  0
C  C101  1  0.05693276  0.12167326  0.87938891  1  -0.039711  0  -0.055969  -0.127754  0  3.870957  0
C  C102  1  0.68782003  0.15457631  0.94924637  1  0.006702  0  -0.058754  -0.129379  0  3.86855  0
C  C103  1  0.73852730  0.84541673  0.05072349  1  0.014744  0  -0.058119  -0.12891  0  3.866452  0
C  C104  1  0.18782629  0.79471824  0.94925499  1  0.0212  0  -0.058772  -0.128669  0  3.867338  0
C  C105  1  0.23848914  0.20523352  0.05064187  1  -0.050398  0  -0.057884  -0.127311  0  3.866501  0
C  C106  1  0.68424267  0.14697038  0.03637704  1  0.347199  0  0.087428  0.154386  0  4.055804  0
C  C107  1  0.64781550  0.85305145  0.96361007  1  0.280387  0  0.08702  0.154165  0  4.05408  0
C  C108  1  0.18422038  0.88941674  0.03638604  1  0.280501  0  0.087363  0.154017  0  4.057152  0
C  C109  1  0.14776609  0.11049823  0.96350801  1  0.356396  0  0.087657  0.15361  0  4.056677  0
N  N110  1  0.88865891  0.99026654  0.94996228  1  -0.494898  0  -0.142475  -0.123247  0  3.273486  0
N  N111  1  0.93848572  0.00969059  0.04999109  1  -0.445785  0  -0.141646  -0.123671  0  3.272499  0
N  N112  1  0.38863766  0.95968962  0.94998519  1  -0.479988  0  -0.141816  -0.123521  0  3.275311  0
N  N113  1  0.43855472  0.04030024  0.04999919  1  -0.452847  0  -0.142091  -0.124058  0  3.276063  0
N  N114  1  0.68760160  0.04587318  0.04610509  1  -0.490651  0  -0.136846  -0.115233  0  3.260944  0
N  N115  1  0.64143297  0.95412368  0.95382360  1  -0.423048  0  -0.136819  -0.114985  0  3.260999  0
N  N116  1  0.18759581  0.00024574  0.04611844  1  -0.468682  0  -0.136775  -0.114938  0  3.258395  0
N  N117  1  0.14142936  0.99969678  0.95382375  1  -0.419957  0  -0.136997  -0.114725  0  3.258925  0
O  O118  1  0.66916328  0.18127764  0.76767377  1  -1.160351  0  -0.364711  -0.593683  0  2.130714  0
O  O119  1  0.90147950  0.81869956  0.23232588  1  -1.177101  0  -0.364846  -0.593435  0  2.131104  0
O  O120  1  0.16926577  0.58648194  0.76771734  1  -1.1602  0  -0.364794  -0.593424  0  2.129067  0
O  O121  1  0.40158458  0.41348344  0.23224303  1  -1.170535  0  -0.365194  -0.593347  0  2.128511  0
O  O122  1  0.73634151  0.36979631  0.87680580  1  -1.194767  0  -0.37399  -0.681198  0  2.394384  0
O  O123  1  0.85957458  0.63021003  0.12313787  1  -1.195174  0  -0.374574  -0.681296  0  2.395186  0
O  O124  1  0.23633930  0.50704810  0.87679507  1  -1.192345  0  -0.373982  -0.681125  0  2.394585  0
O  O125  1  0.35941693  0.49300430  0.12320578  1  -1.192078  0  -0.373811  -0.680914  0  2.394194  0
O  O126  1  0.60380515  0.78090234  0.53155371  1  -1.182962  0  -0.331484  -0.595892  0  2.103811  0
O  O127  1  0.07235780  0.21908033  0.46852039  1  -1.182814  0  -0.331609  -0.595771  0  2.103121  0
O  O128  1  0.10382924  0.75065978  0.53158632  1  -1.177704  0  -0.331476  -0.595729  0  2.104528  0
O  O129  1  0.57228760  0.24939678  0.46848867  1  -1.182394  0  -0.331439  -0.595189  0  2.103229  0
O  O130  1  0.60136169  0.59576674  0.48456820  1  -1.190279  0  -0.401525  -0.659308  0  2.200907  0
O  O131  1  0.11674154  0.40418765  0.51539159  1  -1.190815  0  -0.40148  -0.659173  0  2.200413  0
O  O132  1  0.10136271  0.88874936  0.48452452  1  -1.184424  0  -0.401117  -0.658918  0  2.202127  0
O  O133  1  0.61693897  0.11125445  0.51545031  1  -1.181971  0  -0.401441  -0.658926  0  2.201696  0
O  O134  1  0.88962135  0.59611093  0.93645998  1  -1.158942  0  -0.300783  -0.549696  0  2.351241  0
O  O135  1  0.95318773  0.40388835  0.06355175  1  -1.152246  0  -0.300629  -0.549226  0  2.352883  0
O  O136  1  0.38959553  0.34044597  0.93637998  1  -1.15929  0  -0.300723  -0.549927  0  2.350955  0
O  O137  1  0.45323441  0.65960130  0.06368745  1  -1.159942  0  -0.300712  -0.549286  0  2.351466  0
O  O138  1  0.39968938  0.65381106  0.37936072  1  -1.229214  0  -0.569374  -0.76693  0  2.020582  0
O  O139  1  0.02024707  0.34615964  0.62054479  1  -1.237872  0  -0.56921  -0.766826  0  2.020661  0
O  O140  1  0.89970884  0.72551529  0.37944915  1  -1.250305  0  -0.56929  -0.766395  0  2.021047  0
O  O141  1  0.52029637  0.27439926  0.62058909  1  -1.223968  0  -0.568518  -0.764251  0  2.023138  0
O  O142  1  0.73239322  0.71064560  0.42137484  1  -1.273795  0  -0.644774  -0.865471  0  2.020018  0
O  O143  1  0.31106466  0.28931379  0.57869384  1  -1.302674  0  -0.64433  -0.86523  0  2.020396  0
O  O144  1  0.23234710  0.71058003  0.42130673  1  -1.289142  0  -0.645112  -0.866017  0  2.019473  0
O  O145  1  0.81113231  0.28959470  0.57880721  1  -1.297306  0  -0.644251  -0.864626  0  2.020534  0
O  O146  1  0.76332237  0.47341197  0.75524275  1  -1.204611  0  -0.413843  -0.675031  0  2.332109  0
O  O147  1  0.00805619  0.52664157  0.24471972  1  -1.205344  0  -0.414009  -0.674655  0  2.332452  0
O  O148  1  0.26322473  0.28185565  0.75517654  1  -1.204314  0  -0.413429  -0.674794  0  2.330886  0
O  O149  1  0.50814042  0.71817454  0.24489993  1  -1.193616  0  -0.412971  -0.673828  0  2.332215  0
O  O150  1  0.64889614  0.43781469  0.27782300  1  -1.165893  0  -0.394016  -0.619065  0  2.108219  0
O  O151  1  0.37104462  0.56218474  0.72218110  1  -1.173081  0  -0.394493  -0.619144  0  2.108957  0
O  O152  1  0.14880511  0.83977063  0.27773074  1  -1.172267  0  -0.395159  -0.620062  0  2.108473  0
O  O153  1  0.87103535  0.16015397  0.72226811  1  -1.179359  0  -0.394671  -0.619175  0  2.108831  0
O  O154  1  0.60326247  0.51597534  0.16637482  1  -1.179422  0  -0.395056  -0.650108  0  2.197754  0
O  O155  1  0.43693442  0.48395941  0.83356454  1  -1.182111  0  -0.394655  -0.649691  0  2.197977  0
O  O156  1  0.10298401  0.65019269  0.16607984  1  -1.175984  0  -0.394914  -0.649627  0  2.197935  0
O  O157  1  0.93685716  0.34973781  0.83389905  1  -1.180105  0  -0.395107  -0.649723  0  2.198249  0
