# generated using pymatgen
data_Zn4H10C36Br2O13
_symmetry_space_group_name_H-M   'P 1'
_cell_length_a   21.01443072
_cell_length_b   20.96473709
_cell_length_c   20.96320525
_cell_angle_alpha   103.17622228
_cell_angle_beta   112.64128652
_cell_angle_gamma   112.63202993
_symmetry_Int_Tables_number   1
_chemical_formula_structural   Zn4H10C36Br2O13
_chemical_formula_sum   'Zn8 H20 C72 Br4 O26'
_cell_volume   7059.22581963
_cell_formula_units_Z   2
loop_
 _symmetry_equiv_pos_site_id
 _symmetry_equiv_pos_as_xyz
  1  'x, y, z'
loop_
 _atom_site_type_symbol
 _atom_site_label
 _atom_site_symmetry_multiplicity
 _atom_site_fract_x
 _atom_site_fract_y
 _atom_site_fract_z
 _atom_site_occupancy
 _atom_site_pbe_bader_charge
 _atom_site_pbe_bader_spin_density
 _atom_site_pbe_cm5_charge
 _atom_site_pbe_ddec_charge
 _atom_site_pbe_ddec_spin_density
 _atom_site_pbe_ddec_sum_bond_order
 _atom_site_pbe_magmom
Zn  Zn0  1  0.57010971  0.27525637  0.70725282  1  1.322105  0  0.681622  0.972691  0  2.350809  0
Zn  Zn1  1  0.56897409  0.86296404  0.29481134  1  1.315715  0  0.675702  0.966554  0  2.356935  0
Zn  Zn2  1  0.56901189  0.29485061  0.86298414  1  1.315669  0  0.67567  0.966427  0  2.356635  0
Zn  Zn3  1  0.43099363  0.70516362  0.13701989  1  1.31581  0  0.675672  0.966455  0  2.356588  0
Zn  Zn4  1  0.43103131  0.13704905  0.70519429  1  1.315606  0  0.67563  0.966335  0  2.357194  0
Zn  Zn5  1  0.42989357  0.72475386  0.29275518  1  1.322157  0  0.681644  0.972741  0  2.350731  0
Zn  Zn6  1  0.42987520  0.29269563  0.72471799  1  1.322248  0  0.681463  0.9724  0  2.351033  0
Zn  Zn7  1  0.57012763  0.70731285  0.27528705  1  1.322171  0  0.681553  0.972553  0  2.350796  0
H  H8  1  0.51752175  0.53341499  0.73113579  1  0.06694  0  0.104149  0.115968  0  0.991111  0
H  H9  1  0.43683322  0.46440648  0.13956983  1  0.072445  0  0.103226  0.104118  0  0.989076  0
H  H10  1  0.43500392  0.13856728  0.46489245  1  0.058534  0  0.103257  0.103909  0  0.988005  0
H  H11  1  0.56500883  0.86144969  0.53508637  1  0.058139  0  0.103215  0.104071  0  0.987888  0
H  H12  1  0.56316466  0.53566250  0.86041444  1  0.072353  0  0.103259  0.104185  0  0.989065  0
H  H13  1  0.32247240  0.45707877  0.81826759  1  0.0608  0  0.107154  0.109269  0  0.985335  0
H  H14  1  0.67753103  0.54288828  0.18175796  1  0.061596  0  0.107242  0.109348  0  0.98542  0
H  H15  1  0.67543853  0.18143670  0.53967944  1  0.043642  0  0.106934  0.108672  0  0.984292  0
H  H16  1  0.48239969  0.46652039  0.26879319  1  0.067358  0  0.104171  0.115972  0  0.991346  0
H  H17  1  0.32458239  0.81857472  0.46036141  1  0.043454  0  0.106887  0.10865  0  0.984324  0
H  H18  1  0.27645642  0.45391464  0.68856489  1  0.082829  0  0.107664  0.118696  0  0.983762  0
H  H19  1  0.72346472  0.54591479  0.31139983  1  0.087215  0  0.107454  0.118363  0  0.98391  0
H  H20  1  0.71952902  0.31012516  0.54061706  1  0.122411  0  0.107498  0.119523  0  0.984724  0
H  H21  1  0.28051717  0.68990299  0.45945975  1  0.122435  0  0.107534  0.119519  0  0.984852  0
H  H22  1  0.47867265  0.26682341  0.46489480  1  0.087941  0  0.103985  0.116066  0  0.989655  0
H  H23  1  0.44727073  0.58164197  0.96472660  1  0.095557  0  0.111336  0.121665  0  0.992677  0
H  H24  1  0.55273313  0.41836651  0.03527646  1  0.095617  0  0.111291  0.121538  0  0.992761  0
H  H25  1  0.55146131  0.03488603  0.41743350  1  0.110273  0  0.11137  0.12154  0  0.992981  0
H  H26  1  0.44854048  0.96512706  0.58256740  1  0.110942  0  0.111374  0.121548  0  0.993031  0
H  H27  1  0.52136401  0.73320968  0.53510978  1  0.08829  0  0.103924  0.115942  0  0.989756  0
C  C28  1  0.49998583  0.14071828  0.85932080  1  1.684797  0  0.236865  0.666481  0  4.250712  0
C  C29  1  0.52486978  0.48336850  0.24948451  1  0.010154  0  -0.099031  -0.132554  0  4.016251  0
C  C30  1  0.49825379  0.61019593  0.11026835  1  1.586077  0  0.231659  0.610783  0  4.160216  0
C  C31  1  0.49821733  0.11027618  0.61013206  1  1.573463  0  0.231409  0.610359  0  4.160646  0
C  C32  1  0.50179025  0.88973805  0.38987324  1  1.573908  0  0.231528  0.610789  0  4.160137  0
C  C33  1  0.50175847  0.38982116  0.88973894  1  1.586495  0  0.231547  0.610806  0  4.160052  0
C  C34  1  0.28020896  0.13988580  0.64002828  1  1.736395  0  0.234224  0.6613  0  4.257899  0
C  C35  1  0.71979433  0.86011981  0.35997820  1  1.73617  0  0.234042  0.66083  0  4.258586  0
C  C36  1  0.71979430  0.35996150  0.86007582  1  1.736046  0  0.234225  0.660904  0  4.257941  0
C  C37  1  0.28020949  0.64004407  0.13992179  1  1.735958  0  0.234217  0.660978  0  4.257737  0
C  C38  1  0.52153333  0.24790656  0.48146155  1  0.020608  0  -0.099372  -0.133656  0  4.011714  0
C  C39  1  0.80702467  0.40363793  0.90393336  1  -0.242127  0  -0.001603  -0.126465  0  3.834466  0
C  C40  1  0.19298189  0.59637168  0.09606861  1  -0.242248  0  -0.001569  -0.12653  0  3.834223  0
C  C41  1  0.19298164  0.09603479  0.59635360  1  -0.243093  0  -0.001676  -0.12675  0  3.834141  0
C  C42  1  0.80702165  0.90397082  0.40365479  1  -0.242836  0  -0.001657  -0.126589  0  3.834049  0
C  C43  1  0.47849615  0.75211736  0.51854773  1  0.017088  0  -0.099316  -0.133561  0  4.01197  0
C  C44  1  0.88136322  0.44075783  0.94085801  1  0.150659  0  -0.004609  0.029897  0  4.250711  0
C  C45  1  0.11863561  0.55925180  0.05913858  1  0.151139  0  -0.004691  0.029726  0  4.250563  0
C  C46  1  0.11863682  0.05912348  0.55923960  1  0.151926  0  -0.004627  0.029889  0  4.250534  0
C  C47  1  0.88136646  0.94088211  0.44076497  1  0.151803  0  -0.004641  0.029837  0  4.250502  0
C  C48  1  0.96261446  0.48132959  0.98133566  1  -0.172961  0  0.00527  0.00315  0  4.183882  0
C  C49  1  0.47505722  0.51655190  0.75045376  1  0.009881  0  -0.098963  -0.132689  0  4.016159  0
C  C50  1  0.03738938  0.51868346  0.01865840  1  0.111163  0  0.005418  0.003591  0  4.184026  0
C  C51  1  0.03738937  0.01865456  0.51867296  1  0.110909  0  0.005275  0.003288  0  4.183971  0
C  C52  1  0.96261186  0.98134642  0.48132739  1  -0.173637  0  0.005347  0.003313  0  4.184074  0
C  C53  1  0.50000963  0.40306105  0.59699056  1  0.172118  0  -0.00512  -0.13308  0  3.836071  0
C  C54  1  0.49999378  0.59694570  0.40301480  1  0.171998  0  -0.005128  -0.133029  0  3.835707  0
C  C55  1  0.50000040  0.44040995  0.55964665  1  -0.180252  0  -0.007056  0.029026  0  4.258317  0
C  C56  1  0.50000135  0.55958640  0.44035239  1  -0.180109  0  -0.007048  0.029018  0  4.258196  0
C  C57  1  0.50016100  0.51758218  0.82284051  1  -0.066648  0  -0.090619  -0.116817  0  3.985426  0
C  C58  1  0.49981243  0.48242346  0.17713248  1  -0.06851  0  -0.090604  -0.116747  0  3.985366  0
C  C59  1  0.49754137  0.17610190  0.48169184  1  -0.031596  0  -0.090731  -0.115873  0  3.984145  0
C  C60  1  0.50001461  0.85929424  0.14068041  1  1.685592  0  0.23664  0.666349  0  4.250752  0
C  C61  1  0.50247629  0.82391743  0.51830563  1  -0.031772  0  -0.090821  -0.116479  0  3.984253  0
C  C62  1  0.44566172  0.49559862  0.84790983  1  0.013662  0  -0.011172  0.066646  0  4.020332  0
C  C63  1  0.55433893  0.50440409  0.15209021  1  0.014265  0  -0.011303  0.06626  0  4.02061  0
C  C64  1  0.55250849  0.15146362  0.50309705  1  -0.020015  0  -0.011171  0.065393  0  4.019889  0
C  C65  1  0.44750610  0.84855114  0.49690871  1  -0.018639  0  -0.011207  0.065831  0  4.019741  0
C  C66  1  0.36556180  0.47436945  0.79958227  1  -0.012077  0  -0.086144  -0.113158  0  3.971943  0
C  C67  1  0.63442076  0.52557858  0.20041949  1  -0.011524  0  -0.08629  -0.113346  0  3.972657  0
C  C68  1  0.63198595  0.19976554  0.52277927  1  0.021723  0  -0.085329  -0.109948  0  3.966795  0
C  C69  1  0.36803907  0.80025043  0.47725274  1  0.0211  0  -0.085172  -0.10999  0  3.966881  0
C  C70  1  0.33926246  0.47219410  0.72659740  1  -0.005761  0  -0.095308  -0.131592  0  4.005115  0
C  C71  1  0.66066872  0.52766815  0.27336855  1  -0.009908  0  -0.095073  -0.13103  0  4.005675  0
C  C72  1  0.65719842  0.27219031  0.52369009  1  -0.060875  0  -0.095388  -0.134606  0  4.007101  0
C  C73  1  0.34283792  0.72783490  0.47635839  1  -0.060931  0  -0.095497  -0.134689  0  4.007104  0
C  C74  1  0.39429125  0.49279582  0.70251294  1  -0.089854  0  -0.016661  0.118664  0  3.983145  0
C  C75  1  0.49999691  0.48122395  0.51879507  1  0.039278  0  0.000906  0.003977  0  4.172788  0
C  C76  1  0.60560763  0.50702782  0.29741706  1  -0.093158  0  -0.016462  0.118618  0  3.983436  0
C  C77  1  0.60166088  0.29574580  0.50335998  1  -0.105671  0  -0.016373  0.120148  0  3.979839  0
C  C78  1  0.39838431  0.70428975  0.49669330  1  -0.101436  0  -0.016363  0.120607  0  3.979346  0
C  C79  1  0.46941107  0.54470377  0.97940930  1  -0.041678  0  -0.075822  -0.134651  0  3.937029  0
C  C80  1  0.53060030  0.45530985  0.02059448  1  -0.041686  0  -0.075818  -0.134407  0  3.9371  0
C  C81  1  0.52989078  0.02038252  0.45478186  1  -0.076114  0  -0.076258  -0.135252  0  3.937361  0
C  C82  1  0.50000362  0.51877298  0.48120076  1  -0.139131  0  0.001076  0.004126  0  4.173026  0
C  C83  1  0.47010992  0.97962769  0.54521845  1  -0.076691  0  -0.0762  -0.135124  0  3.937067  0
C  C84  1  0.49722372  0.55052224  0.05409715  1  -0.037113  0  -0.009038  -0.067309  0  3.931801  0
C  C85  1  0.50279247  0.44949540  0.94591035  1  -0.036712  0  -0.00898  -0.067549  0  3.9322  0
C  C86  1  0.50287570  0.94595722  0.44954618  1  -0.030302  0  -0.008725  -0.066514  0  3.930734  0
C  C87  1  0.49712751  0.05405471  0.55045549  1  -0.029658  0  -0.008786  -0.066625  0  3.930654  0
C  C88  1  0.52792012  0.50461216  0.07562130  1  0.035092  0  0.006951  0.062513  0  3.967723  0
C  C89  1  0.47209671  0.49540665  0.92438862  1  0.034276  0  0.006862  0.062346  0  3.967727  0
C  C90  1  0.47292231  0.92465514  0.49599167  1  0.041226  0  0.006369  0.061577  0  3.967235  0
C  C91  1  0.52708065  0.07535449  0.50400938  1  0.041224  0  0.006459  0.061931  0  3.967166  0
C  C92  1  0.50001220  0.35922422  0.64078976  1  1.636809  0  0.236005  0.66249  0  4.244977  0
C  C93  1  0.49999140  0.64078659  0.35922039  1  1.637526  0  0.235954  0.662507  0  4.245096  0
C  C94  1  0.49999338  0.09693387  0.90311223  1  0.174068  0  -0.002799  -0.130093  0  3.836463  0
C  C95  1  0.50000835  0.90308095  0.09688999  1  0.174192  0  -0.002437  -0.129798  0  3.836699  0
C  C96  1  0.49998716  0.05958497  0.94043489  1  -0.183595  0  -0.00218  0.033956  0  4.249464  0
C  C97  1  0.50001521  0.94043099  0.05956402  1  -0.183535  0  -0.002627  0.033454  0  4.249683  0
C  C98  1  0.49999398  0.01878050  0.98122407  1  0.034386  0  0.005886  0.003184  0  4.180368  0
C  C99  1  0.50000711  0.98122856  0.01877757  1  -0.144251  0  0.006168  0.003737  0  4.180385  0
Br  Br100  1  0.35836375  0.48792243  0.60229829  1  -0.077427  0  0.001266  -0.097102  0  1.430715  0
Br  Br101  1  0.64136595  0.51161221  0.39752140  1  -0.075379  0  0.001119  -0.097281  0  1.431417  0
Br  Br102  1  0.63556948  0.39462032  0.50510080  1  -0.078111  0  -0.000591  -0.100829  0  1.434511  0
Br  Br103  1  0.36450511  0.60544595  0.49502942  1  -0.079141  0  -0.000694  -0.101232  0  1.433818  0
O  O104  1  0.50002402  0.24991533  0.75009391  1  -1.230705  0  -0.570096  -1.038718  0  2.51976  0
O  O105  1  0.45265645  0.78638885  0.10182623  1  -1.153244  0  -0.304  -0.52898  0  2.27254  0
O  O106  1  0.45261787  0.10185724  0.78641368  1  -1.152631  0  -0.303917  -0.528618  0  2.273323  0
O  O107  1  0.54738508  0.89815701  0.21359032  1  -1.152645  0  -0.303908  -0.528671  0  2.273059  0
O  O108  1  0.55029332  0.33691441  0.65260289  1  -1.133558  0  -0.298421  -0.525904  0  2.301887  0
O  O109  1  0.44970880  0.66309468  0.34740583  1  -1.133543  0  -0.29831  -0.52592  0  2.30199  0
O  O110  1  0.44972031  0.34737246  0.66309977  1  -1.133897  0  -0.298329  -0.526326  0  2.303181  0
O  O111  1  0.55028355  0.65264066  0.33691339  1  -1.134698  0  -0.298387  -0.526362  0  2.302969  0
O  O112  1  0.49997990  0.75009604  0.24991268  1  -1.230504  0  -0.570074  -1.038743  0  2.519563  0
O  O113  1  0.44475393  0.08233335  0.62727408  1  -1.16244  0  -0.312958  -0.541539  0  2.326925  0
O  O114  1  0.55525886  0.91767915  0.37273858  1  -1.162755  0  -0.313  -0.541771  0  2.326896  0
O  O115  1  0.55534960  0.37282587  0.91771723  1  -1.163248  0  -0.313122  -0.541688  0  2.32697  0
O  O116  1  0.44465940  0.62718722  0.08229266  1  -1.163335  0  -0.313186  -0.541738  0  2.326837  0
O  O117  1  0.44649885  0.35921039  0.81907857  1  -1.180454  0  -0.305687  -0.540141  0  2.382332  0
O  O118  1  0.55351336  0.64080382  0.18092853  1  -1.180298  0  -0.305832  -0.540322  0  2.38255  0
O  O119  1  0.55340336  0.18093076  0.64060239  1  -1.167811  0  -0.305963  -0.540416  0  2.381906  0
O  O120  1  0.44659907  0.81908347  0.35939520  1  -1.167865  0  -0.306157  -0.540776  0  2.381534  0
O  O121  1  0.31466042  0.10179352  0.65278365  1  -1.151936  0  -0.302451  -0.527402  0  2.273809  0
O  O122  1  0.68534344  0.89821497  0.34722322  1  -1.15166  0  -0.302416  -0.527298  0  2.273921  0
O  O123  1  0.68536228  0.34721188  0.89819642  1  -1.151166  0  -0.302469  -0.52724  0  2.27297  0
O  O124  1  0.31464106  0.65279196  0.10180158  1  -1.15118  0  -0.30255  -0.527351  0  2.272951  0
O  O125  1  0.31371420  0.21231602  0.66130951  1  -1.146036  0  -0.301166  -0.523871  0  2.274813  0
O  O126  1  0.68628869  0.78769073  0.33869279  1  -1.146079  0  -0.30104  -0.52364  0  2.275086  0
O  O127  1  0.68626819  0.33867538  0.78764386  1  -1.146517  0  -0.301182  -0.523839  0  2.275124  0
O  O128  1  0.31373579  0.66133423  0.21235616  1  -1.146462  0  -0.30116  -0.523796  0  2.274943  0
O  O129  1  0.54734219  0.21362599  0.89817480  1  -1.152592  0  -0.304033  -0.528981  0  2.272578  0
