# generated using pymatgen
data_Mn3H42C30(N4O11)2
_symmetry_space_group_name_H-M   'P 1'
_cell_length_a   9.33036579
_cell_length_b   12.42245526
_cell_length_c   22.80852759
_cell_angle_alpha   90.00331482
_cell_angle_beta   101.18214622
_cell_angle_gamma   90.00056797
_symmetry_Int_Tables_number   1
_chemical_formula_structural   Mn3H42C30(N4O11)2
_chemical_formula_sum   'Mn6 H84 C60 N16 O44'
_cell_volume   2593.45841801
_cell_formula_units_Z   2
loop_
 _symmetry_equiv_pos_site_id
 _symmetry_equiv_pos_as_xyz
  1  'x, y, z'
loop_
 _atom_site_type_symbol
 _atom_site_label
 _atom_site_symmetry_multiplicity
 _atom_site_fract_x
 _atom_site_fract_y
 _atom_site_fract_z
 _atom_site_occupancy
 _atom_site_pbe_bader_charge
 _atom_site_pbe_bader_spin_density
 _atom_site_pbe_cm5_charge
 _atom_site_pbe_ddec_charge
 _atom_site_pbe_ddec_spin_density
 _atom_site_pbe_ddec_sum_bond_order
 _atom_site_pbe_magmom
Mn  Mn0  1  0.94674435  0.19209077  0.31225856  1  1.53726  4.591463  0.601778  1.045438  4.697351  2.226913  4.519
Mn  Mn1  1  0.44674913  0.80792922  0.81225300  1  1.537394  4.591418  0.601812  1.045476  4.697552  2.226894  4.519
Mn  Mn2  1  0.61650225  0.35678398  0.28083734  1  1.535  4.54938  0.598174  1.07159  4.663998  2.274407  4.485
Mn  Mn3  1  0.11651859  0.64325035  0.78082753  1  1.535251  4.549304  0.598267  1.07176  4.663853  2.274213  4.485
Mn  Mn4  1  0.22048114  0.33437440  0.27508675  1  1.531573  4.553584  0.602972  1.049446  4.672757  2.283629  4.488
Mn  Mn5  1  0.72047562  0.66564642  0.77509693  1  1.531579  4.553567  0.602963  1.049345  4.672857  2.283707  4.488
H  H6  1  0.39325325  0.18322984  0.25305288  1  0.642796  0.002225  0.29438  0.377944  0.001525  0.971866  0.003
H  H7  1  0.89326226  0.81680602  0.75305192  1  0.642657  0.002225  0.294471  0.378013  0.001523  0.971715  0.003
H  H8  1  0.47130244  0.21013264  0.32185201  1  0.655198  0.001498  0.29454  0.3783  0.001094  0.971351  0.002
H  H9  1  0.97131176  0.78990867  0.82184978  1  0.655194  0.0015  0.294438  0.378047  0.001094  0.971681  0.002
H  H10  1  0.51442437  0.49235671  0.35811316  1  0.596706  0.001465  0.320292  0.393486  0.000764  0.890073  0.001
H  H11  1  0.01450563  0.50767217  0.85809912  1  0.596815  0.001467  0.320319  0.39342  0.000765  0.89043  0.001
H  H12  1  0.45651660  0.38306982  0.37523110  1  0.644732  0.001194  0.295668  0.382757  0.000487  0.957382  0.001
H  H13  1  0.95652322  0.61694724  0.87521136  1  0.64481  0.001195  0.295694  0.382635  0.000487  0.957441  0.001
H  H14  1  0.16326690  0.95369399  0.14195607  1  0.102938  5.8e-05  0.109899  0.085252  7e-06  1.014124  0.0
H  H15  1  0.66327380  0.04628816  0.64194860  1  0.103097  5.8e-05  0.10996  0.085407  7e-06  1.013923  0.0
H  H16  1  0.22058545  0.86627193  0.20400038  1  0.082012  0.00015  0.110111  0.086456  8.5e-05  0.990218  0.0
H  H17  1  0.72060917  0.13372204  0.70399310  1  0.082329  0.000149  0.110131  0.086455  8.5e-05  0.990151  0.0
H  H18  1  0.96914855  0.02799740  0.20035603  1  0.112669  0.00031  0.106982  0.131586  -0.000223  1.017712  0.0
H  H19  1  0.46916161  0.97199401  0.70034405  1  0.113102  0.00031  0.107048  0.131531  -0.000223  1.01763  0.0
H  H20  1  0.06179360  0.95607632  0.26222281  1  0.07628  0.000535  0.111114  0.138699  7.5e-05  0.98856  0.0
H  H21  1  0.56178081  0.04394518  0.76221102  1  0.076865  0.000534  0.111048  0.138553  7.5e-05  0.988611  0.0
H  H22  1  0.73557084  0.56004241  0.17924358  1  0.119575  -1.1e-05  0.121681  0.106901  -0.00028  0.99212  0.0
H  H23  1  0.23557868  0.43993859  0.67924903  1  0.119714  -1.1e-05  0.121648  0.10685  -0.00028  0.99216  0.0
H  H24  1  0.80163140  0.64024920  0.24336422  1  0.099386  0.000244  0.111551  0.086651  -0.000126  1.006775  0.0
H  H25  1  0.30164675  0.35974150  0.74336600  1  0.099562  0.000244  0.11154  0.086632  -0.000126  1.006667  0.0
H  H26  1  0.05430198  0.55927234  0.24810958  1  0.125192  0.00191  0.109762  0.1408  0.00086  1.014955  0.001
H  H27  1  0.55430950  0.44072748  0.74811548  1  0.125131  0.00191  0.109775  0.140771  0.00086  1.015082  0.001
H  H28  1  0.98284746  0.47567959  0.18713000  1  0.068758  0.002442  0.107905  0.134815  0.001044  0.979834  0.001
H  H29  1  0.48286555  0.52429684  0.68713062  1  0.06887  0.002442  0.107929  0.134861  0.001045  0.979799  0.001
H  H30  1  0.74384172  0.87919784  0.00230466  1  0.078483  7e-05  0.116973  0.101591  -6e-05  0.974084  0.0
H  H31  1  0.24389942  0.12077576  0.50228965  1  0.079449  7e-05  0.117096  0.101553  -6e-05  0.97423  0.0
H  H32  1  0.63233891  0.76702695  0.01339910  1  0.063984  0.000141  0.11104  0.089294  -6.6e-05  0.996213  0.0
H  H33  1  0.13237368  0.23293492  0.51338619  1  0.063224  0.000141  0.111138  0.089495  -6.6e-05  0.996147  0.0
H  H34  1  0.92104974  0.75623443  0.96723837  1  0.080755  0.000898  0.107702  0.133563  0.000415  0.991457  0.0
H  H35  1  0.42107784  0.24374140  0.46721974  1  0.080737  0.000897  0.107683  0.133556  0.000414  0.991237  0.0
H  H36  1  0.82578327  0.64255867  0.98600264  1  0.056884  0.001081  0.108564  0.132048  0.000561  0.960962  0.001
H  H37  1  0.32584390  0.35741602  0.48600955  1  0.057358  0.001081  0.10864  0.132145  0.00056  0.961096  0.001
H  H38  1  0.62885765  0.15968061  0.49627542  1  0.121021  0.000105  0.111963  0.091755  4.5e-05  1.024734  0.0
H  H39  1  0.12884456  0.84031302  0.99628477  1  0.120607  0.000105  0.111896  0.091622  4.5e-05  1.024762  0.0
H  H40  1  0.71751047  0.03899307  0.48150761  1  0.071463  7.5e-05  0.115094  0.097672  -1e-05  0.975068  0.0
H  H41  1  0.21749648  0.96100127  0.98152552  1  0.071652  7.5e-05  0.115087  0.097734  -1e-05  0.975009  0.0
H  H42  1  0.83137460  0.26506116  0.45936745  1  0.081718  0.000899  0.115683  0.144063  0.000278  0.945804  0.001
H  H43  1  0.33132145  0.73492927  0.95935880  1  0.082009  0.000899  0.115693  0.144124  0.000278  0.945794  0.001
H  H44  1  0.89838060  0.14247896  0.43665579  1  0.084544  0.00139  0.108246  0.13006  0.000661  1.016129  0.001
H  H45  1  0.39838645  0.85751037  0.93667600  1  0.084701  0.001388  0.108272  0.130048  0.00066  1.016057  0.001
H  H46  1  0.05203390  0.35162170  0.68819661  1  0.09215  0.000151  0.114926  0.089228  -0.00019  1.039942  0.0
H  H47  1  0.55202983  0.64837659  0.18818813  1  0.092362  0.000151  0.114894  0.08924  -0.00019  1.040135  0.0
H  H48  1  0.92482952  0.40554264  0.62757804  1  0.091242  0.000137  0.119497  0.107449  -3.6e-05  0.953449  0.0
H  H49  1  0.42481213  0.59445040  0.12757026  1  0.09144  0.000137  0.119523  0.107468  -3.6e-05  0.953329  0.0
H  H50  1  0.83831388  0.30132644  0.73853579  1  0.066868  0.001721  0.104596  0.12753  0.000945  0.96801  0.001
H  H51  1  0.33832037  0.69870346  0.23852930  1  0.06623  0.001722  0.104631  0.127654  0.000945  0.967862  0.001
H  H52  1  0.72185218  0.37222603  0.68127904  1  0.078957  0.000941  0.103565  0.126969  0.0004  0.987036  0.0
H  H53  1  0.22185425  0.62778165  0.18128003  1  0.078901  0.000941  0.103549  0.126927  0.000401  0.987015  0.0
H  H54  1  0.21094106  0.98180465  0.60026342  1  0.058364  5.1e-05  0.107672  0.084452  1e-05  0.989559  0.0
H  H55  1  0.71095842  0.01818873  0.10027012  1  0.058529  5.1e-05  0.10764  0.08435  1e-05  0.98967  0.0
H  H56  1  0.22643454  0.02535850  0.67592361  1  0.11166  0.000212  0.112845  0.091909  -0.000133  1.028203  0.0
H  H57  1  0.72643563  0.97465589  0.17592890  1  0.111622  0.000212  0.112819  0.091885  -0.000133  1.028292  0.0
H  H58  1  0.05075407  0.83553421  0.61441687  1  0.082647  0.001098  0.09947  0.117257  0.000549  0.996675  0.001
H  H59  1  0.55075613  0.16445949  0.11442211  1  0.082819  0.001096  0.09941  0.117183  0.000548  0.996788  0.001
H  H60  1  0.99457788  0.90159869  0.67457067  1  0.118041  0.001745  0.108259  0.140558  0.000904  1.005861  0.001
H  H61  1  0.49458160  0.09840386  0.17457483  1  0.118387  0.001743  0.108222  0.140481  0.000903  1.005928  0.001
H  H62  1  0.67902972  0.79796639  0.30479965  1  0.119146  9.3e-05  0.111374  0.136702  3.3e-05  1.020863  0.0
H  H63  1  0.17902825  0.20202265  0.80480603  1  0.119249  9.3e-05  0.111416  0.136783  3.3e-05  1.020718  0.0
H  H64  1  0.69143762  0.76185930  0.38195983  1  0.016049  0.000649  0.100228  0.106684  0.000376  0.987388  0.0
H  H65  1  0.19142957  0.23814444  0.88196638  1  0.015843  0.00065  0.100246  0.106644  0.000376  0.98766  0.0
H  H66  1  0.80912141  0.70006934  0.33874275  1  0.072244  0.00054  0.110951  0.131117  0.000229  0.982613  0.0
H  H67  1  0.30911954  0.29992989  0.83875219  1  0.072382  0.000541  0.110963  0.131101  0.000229  0.982455  0.0
H  H68  1  0.05131363  0.90885813  0.42138885  1  0.102865  0.000297  0.117495  0.142733  -0.00016  0.987822  0.0
H  H69  1  0.55129974  0.09115116  0.92139732  1  0.103037  0.000298  0.11744  0.14271  -0.00016  0.988  0.0
H  H70  1  0.04110200  0.76750667  0.40369422  1  0.05362  0.000348  0.110047  0.122221  0.000212  0.973511  0.0
H  H71  1  0.54109437  0.23250227  0.90371204  1  0.05325  0.000348  0.110065  0.12228  0.000212  0.973538  0.0
H  H72  1  0.93572223  0.82322871  0.45433207  1  0.077741  0.000297  0.105303  0.122872  0.000176  0.992095  0.0
H  H73  1  0.43570352  0.17677806  0.95434370  1  0.077384  0.000298  0.105419  0.122956  0.000176  0.992108  0.0
H  H74  1  0.75960839  0.96040030  0.29622401  1  0.127862  0.000871  0.129627  0.061168  0.000168  0.98604  0.0
H  H75  1  0.25961639  0.03959165  0.79622473  1  0.127581  0.000872  0.129643  0.061302  0.000168  0.986003  0.0
H  H76  1  0.90337076  0.27659354  0.05952996  1  0.055274  0.000966  0.108746  0.11904  0.000602  0.969912  0.0
H  H77  1  0.40336645  0.72339053  0.55952450  1  0.055503  0.000965  0.108757  0.118976  0.000602  0.969933  0.0
H  H78  1  0.94541788  0.26653952  0.13942163  1  0.095164  0.000176  0.119542  0.14295  -0.000575  0.995128  0.0
H  H79  1  0.44540511  0.73345251  0.63941668  1  0.094439  0.000176  0.119583  0.142968  -0.000574  0.995051  0.0
H  H80  1  0.92230031  0.14695198  0.09413939  1  0.044681  0.000483  0.107723  0.12612  0.000259  0.994245  0.0
H  H81  1  0.42229868  0.85303588  0.59413955  1  0.044888  0.000483  0.107659  0.126036  0.000259  0.994208  0.0
H  H82  1  0.28646336  0.16477029  0.05827998  1  0.084509  0.000138  0.108106  0.120443  6e-05  1.028902  0.0
H  H83  1  0.78646084  0.83520311  0.55828216  1  0.084652  0.000138  0.10819  0.120514  6e-05  1.028933  0.0
H  H84  1  0.12424486  0.20091036  0.00639166  1  0.035575  0.000651  0.103109  0.112855  0.000375  0.981929  0.0
H  H85  1  0.62424130  0.79905715  0.50639130  1  0.036271  0.000651  0.103173  0.112834  0.000375  0.981884  0.0
H  H86  1  0.12587311  0.08336272  0.05151982  1  0.094115  0.000778  0.108074  0.132831  0.000468  1.0104  0.0
H  H87  1  0.62587849  0.91661682  0.55152214  1  0.094304  0.000778  0.10809  0.13281  0.000468  1.010384  0.0
H  H88  1  0.32963547  0.27417312  0.13396625  1  0.091627  0.001118  0.130855  0.057933  0.000375  0.981179  0.0
H  H89  1  0.82962647  0.72581103  0.63396401  1  0.091699  0.001117  0.130876  0.058004  0.000374  0.981182  0.0
C  C90  1  0.97582795  0.75923730  0.19211772  1  1.813263  0.000211  0.345098  0.554522  0.000191  4.156514  0.0
C  C91  1  0.47584204  0.24075571  0.69211301  1  1.812223  0.000211  0.34492  0.5542  0.000191  4.156611  0.0
C  C92  1  0.79427908  0.69246192  0.10739558  1  1.801864  0.000356  0.340425  0.550722  0.000354  4.161009  0.0
C  C93  1  0.29429729  0.30751513  0.60739375  1  1.80118  0.000356  0.34033  0.550566  0.000354  4.160661  0.0
C  C94  1  0.93702380  0.85554395  0.09609334  1  1.800444  0.000397  0.343705  0.556044  0.000375  4.169803  0.0
C  C95  1  0.43705145  0.14444021  0.59608626  1  1.798852  0.000397  0.343694  0.555794  0.000375  4.170101  0.0
C  C96  1  0.12903465  0.91357576  0.17962570  1  0.273036  0.00083  -0.061946  -0.01155  0.000702  3.915999  0.001
C  C97  1  0.62904711  0.08641736  0.67961907  1  0.277606  0.000828  -0.062177  -0.012051  0.000702  3.916152  0.001
C  C98  1  0.07662529  0.99496583  0.22058305  1  -0.051914  0.002536  -0.168712  -0.346014  0.001831  3.919653  0.001
C  C99  1  0.57663205  0.00504090  0.72057558  1  -0.058194  0.002538  -0.168652  -0.345606  0.00183  3.919724  0.001
C  C100  1  0.17937823  0.08863819  0.23676939  1  1.561158  0.010347  0.230207  0.666601  0.00929  4.080075  0.009
C  C101  1  0.67938792  0.91138310  0.73676619  1  1.562201  0.010348  0.23029  0.66654  0.009294  4.079724  0.009
C  C102  1  0.83198325  0.60019238  0.20480054  1  0.261993  0.001291  -0.05821  -0.016604  0.000577  3.895862  0.001
C  C103  1  0.33199216  0.39979365  0.70480043  1  0.262017  0.001291  -0.058248  -0.016747  0.000577  3.896208  0.001
C  C104  1  0.95376654  0.51940151  0.22507519  1  -0.059473  0.004887  -0.166836  -0.350914  0.004127  3.912959  0.002
C  C105  1  0.45377455  0.48058999  0.72507711  1  -0.059682  0.004886  -0.166931  -0.350927  0.004126  3.913027  0.002
C  C106  1  0.91144306  0.43812420  0.26796548  1  1.562244  0.039038  0.246109  0.683459  0.037461  4.05846  0.034
C  C107  1  0.41143393  0.56187877  0.76795979  1  1.562748  0.039029  0.246109  0.683318  0.037465  4.058556  0.034
C  C108  1  0.74425745  0.79357044  0.01353818  1  0.3168  0.001195  -0.058459  -0.012889  0.000696  3.895836  0.001
C  C109  1  0.24430559  0.20640355  0.51352816  1  0.317198  0.001195  -0.058632  -0.01309  0.000696  3.896539  0.001
C  C110  1  0.81172975  0.72619181  0.97008196  1  -0.014102  0.004672  -0.16053  -0.324591  0.003488  3.899373  0.003
C  C111  1  0.31176729  0.27378754  0.47007688  1  -0.014741  0.004673  -0.160583  -0.324561  0.003489  3.89954  0.003
C  C112  1  0.72307141  0.72350750  0.90683468  1  1.589889  0.013976  0.238064  0.674327  0.013047  4.085784  0.012
C  C113  1  0.22308602  0.27649830  0.40683263  1  1.589769  0.013968  0.237915  0.673875  0.013041  4.086123  0.012
C  C114  1  0.82040476  0.22634909  0.58351734  1  1.79863  0.000301  0.343297  0.552961  0.000295  4.161156  0.0
C  C115  1  0.32039696  0.77364655  0.08351819  1  1.79796  0.0003  0.34317  0.552794  0.000295  4.161268  0.0
C  C116  1  0.03509871  0.16319097  0.65551755  1  1.791661  0.000239  0.344206  0.551106  0.000232  4.163899  0.0
C  C117  1  0.53511329  0.83681178  0.15551610  1  1.791353  0.000239  0.344255  0.551346  0.000232  4.163369  0.0
C  C118  1  0.94325025  0.05839704  0.56447484  1  1.805467  0.000293  0.345724  0.552932  0.000285  4.167838  0.0
C  C119  1  0.44325612  0.94159911  0.06448210  1  1.805005  0.000293  0.345747  0.553152  0.000285  4.167649  0.0
C  C120  1  0.73344950  0.12465548  0.49177768  1  0.286711  0.00053  -0.060696  -0.019297  0.000407  3.913223  0.0
C  C121  1  0.23343414  0.87534248  0.99178882  1  0.287177  0.00053  -0.060569  -0.01911  0.000407  3.912944  0.0
C  C122  1  0.79885541  0.18270776  0.44440452  1  -0.045096  0.002478  -0.162314  -0.341989  0.00168  3.920658  0.001
C  C123  1  0.29883844  0.81729211  0.94440888  1  -0.04591  0.002478  -0.162424  -0.342068  0.001678  3.920478  0.001
C  C124  1  0.69293923  0.19526217  0.38572292  1  1.552896  0.017685  0.232367  0.664102  0.016343  4.081196  0.015
C  C125  1  0.19292523  0.80476452  0.88572274  1  1.553026  0.017689  0.232289  0.663938  0.016345  4.080889  0.015
C  C126  1  0.94009069  0.34565627  0.66348781  1  0.307566  0.001145  -0.062321  -0.021933  0.000549  3.906712  0.001
C  C127  1  0.44008705  0.65434068  0.16348523  1  0.306815  0.001145  -0.062317  -0.022005  0.000549  3.906975  0.001
C  C128  1  0.83530142  0.36650584  0.70561899  1  -0.044215  0.004203  -0.161734  -0.317961  0.002964  3.902786  0.002
C  C129  1  0.33530370  0.63350767  0.20561799  1  -0.043128  0.004199  -0.161652  -0.31792  0.002961  3.902582  0.002
C  C130  1  0.87417368  0.47118759  0.73987884  1  1.567725  0.022827  0.226728  0.646702  0.022129  4.137848  0.019
C  C131  1  0.37417925  0.52884191  0.23988664  1  1.567948  0.022824  0.226733  0.646884  0.022132  4.137265  0.019
C  C132  1  0.15213756  0.99202739  0.63717133  1  0.286947  0.00073  -0.061662  -0.01641  0.000392  3.892129  0.0
C  C133  1  0.65214701  0.00797107  0.13717487  1  0.286576  0.000731  -0.061635  -0.016358  0.000392  3.891972  0.0
C  C134  1  0.08993423  0.88540581  0.65393341  1  -0.097282  0.004812  -0.169835  -0.338396  0.003441  3.909029  0.003
C  C135  1  0.58993812  0.11459316  0.15393635  1  -0.097418  0.004814  -0.169848  -0.33841  0.003443  3.908855  0.003
C  C136  1  0.19392675  0.81867221  0.69959638  1  1.587668  0.024054  0.221841  0.654003  0.023477  4.135706  0.021
C  C137  1  0.69394672  0.18133237  0.19960801  1  1.587757  0.02404  0.221875  0.654138  0.023463  4.135734  0.021
C  C138  1  0.75368960  0.77552724  0.34623287  1  0.283194  0.000819  -0.126103  -0.280675  0.000863  3.909484  0.0
C  C139  1  0.25368440  0.22447077  0.84624097  1  0.283131  0.000819  -0.126128  -0.280704  0.000863  3.909531  0.0
C  C140  1  0.97972877  0.83846849  0.41379523  1  0.261721  0.000334  -0.127612  -0.271275  0.000213  3.891871  0.0
C  C141  1  0.47971726  0.16153754  0.91380697  1  0.262434  0.000335  -0.127728  -0.271553  0.000213  3.892341  0.0
C  C142  1  0.85257016  0.95394339  0.33421572  1  1.353683  0.005867  0.189475  0.307186  0.005581  4.064491  0.005
C  C143  1  0.35257394  0.04605810  0.83421849  1  1.354359  0.005867  0.18938  0.306727  0.005584  4.064704  0.005
C  C144  1  0.96303723  0.23015488  0.09768042  1  0.300847  7.6e-05  -0.12664  -0.265803  -5.9e-05  3.868251  0.0
C  C145  1  0.46303207  0.76983206  0.59767811  1  0.301014  7.6e-05  -0.126643  -0.26566  -5.9e-05  3.868054  0.0
C  C146  1  0.16687775  0.16619107  0.05078998  1  0.25788  0.000398  -0.12971  -0.285796  0.000584  3.920892  0.0
C  C147  1  0.66687956  0.83378468  0.55079247  1  0.256839  0.000398  -0.129844  -0.285793  0.000584  3.921174  0.0
C  C148  1  0.21423790  0.28339411  0.13804144  1  1.382817  0.018886  0.185649  0.310599  0.017451  4.08911  0.015
C  C149  1  0.71422753  0.71659525  0.63803967  1  1.383455  0.01887  0.18557  0.310404  0.017439  4.089313  0.015
N  N150  1  0.01230207  0.83809051  0.15412224  1  -1.186831  0.000323  -0.254415  -0.252041  0.000186  3.624838  0.0
N  N151  1  0.51232988  0.16189985  0.65411706  1  -1.185728  0.000322  -0.254111  -0.25145  0.000186  3.624817  0.0
N  N152  1  0.87314010  0.68418594  0.16567443  1  -1.190232  0.000445  -0.250425  -0.23952  0.000287  3.613505  0.0
N  N153  1  0.37314869  0.31580028  0.66567426  1  -1.190026  0.000445  -0.250338  -0.239247  0.000287  3.61367  0.0
N  N154  1  0.82718596  0.78169874  0.07515973  1  -1.181485  0.000381  -0.252323  -0.247971  0.000246  3.610639  0.0
N  N155  1  0.32721805  0.21828239  0.57514964  1  -1.180706  0.000381  -0.2523  -0.24782  0.000246  3.61075  0.0
N  N156  1  0.83193282  0.13358472  0.55026525  1  -1.180792  0.000249  -0.253047  -0.249352  0.000126  3.627332  0.0
N  N157  1  0.33192658  0.86640911  0.05027397  1  -1.180969  0.000249  -0.253021  -0.249529  0.000126  3.62744  0.0
N  N158  1  0.92768232  0.23898175  0.63473229  1  -1.189321  0.000342  -0.251241  -0.243093  0.000237  3.618402  0.0
N  N159  1  0.42768403  0.76101448  0.13473089  1  -1.188704  0.000342  -0.251221  -0.243066  0.000237  3.617869  0.0
N  N160  1  0.03831431  0.07395306  0.61882879  1  -1.177282  0.000323  -0.25362  -0.243999  0.000222  3.617466  0.0
N  N161  1  0.53832493  0.92603859  0.11883114  1  -1.176646  0.000323  -0.253487  -0.243774  0.000222  3.617127  0.0
N  N162  1  0.86109499  0.86025094  0.36356924  1  -1.215495  0.007926  -0.275446  0.038182  0.005847  3.719886  0.006
N  N163  1  0.36108619  0.13975373  0.86357613  1  -1.215814  0.007928  -0.275511  0.038422  0.005849  3.719973  0.006
N  N164  1  0.11888548  0.22919135  0.09714313  1  -1.212241  0.014234  -0.278933  0.031014  0.010521  3.721426  0.011
N  N165  1  0.61887891  0.77079458  0.59714163  1  -1.212184  0.014221  -0.27903  0.030852  0.010511  3.721516  0.011
O  O166  1  0.03323140  0.75567693  0.24536245  1  -1.133962  0.00041  -0.279128  -0.471181  0.000191  2.097776  0.0
O  O167  1  0.53323864  0.24432244  0.74536125  1  -1.133687  0.00041  -0.279131  -0.471219  0.000191  2.097684  0.0
O  O168  1  0.69911865  0.62772362  0.08564420  1  -1.134974  0.000289  -0.287341  -0.477651  0.000192  2.087521  0.0
O  O169  1  0.19912566  0.37224237  0.58564306  1  -1.134887  0.000289  -0.28722  -0.477521  0.000192  2.087485  0.0
O  O170  1  0.96429020  0.93203697  0.06556028  1  -1.148222  0.000289  -0.289279  -0.501631  0.000185  2.136827  0.0
O  O171  1  0.46431887  0.06793772  0.56555219  1  -1.147676  0.000289  -0.289335  -0.501598  0.000185  2.136816  0.0
O  O172  1  0.13653062  0.16489995  0.26758844  1  -1.228103  0.097774  -0.304431  -0.601783  0.073764  2.397778  0.046
O  O173  1  0.63653802  0.83511784  0.76758573  1  -1.228816  0.097785  -0.3044  -0.601676  0.073763  2.397396  0.046
O  O174  1  0.30022547  0.08925676  0.21934828  1  -1.186628  0.011881  -0.312909  -0.548235  0.007482  2.154665  0.009
O  O175  1  0.80023949  0.91076439  0.71934587  1  -1.186802  0.011883  -0.313035  -0.548334  0.007483  2.154609  0.009
O  O176  1  0.80140687  0.45571896  0.29122508  1  -1.203163  0.068575  -0.308684  -0.557958  0.045455  2.273941  0.026
O  O177  1  0.30138855  0.54428404  0.79121326  1  -1.203685  0.068571  -0.308603  -0.557814  0.045453  2.273946  0.026
O  O178  1  0.99166308  0.35303963  0.27868876  1  -1.233156  0.117356  -0.302875  -0.607349  0.086887  2.440468  0.053
O  O179  1  0.49164659  0.64697392  0.77868647  1  -1.233151  0.117362  -0.302903  -0.607364  0.086899  2.440376  0.053
O  O180  1  0.77874175  0.66697022  0.86975996  1  -1.221902  0.066716  -0.311157  -0.59053  0.045884  2.337171  0.031
O  O181  1  0.27873387  0.33304656  0.36976531  1  -1.222094  0.066685  -0.311002  -0.59017  0.045857  2.337276  0.031
O  O182  1  0.60406133  0.77474103  0.89432156  1  -1.203113  0.058254  -0.295953  -0.551927  0.040904  2.260999  0.027
O  O183  1  0.10406893  0.22526175  0.39431951  1  -1.202979  0.05827  -0.296068  -0.551941  0.040911  2.260806  0.027
O  O184  1  0.72342378  0.29328397  0.56838201  1  -1.127099  0.000318  -0.286153  -0.472037  0.000209  2.075472  0.0
O  O185  1  0.22341395  0.70671579  0.06838495  1  -1.126949  0.000318  -0.286139  -0.471967  0.000209  2.07558  0.0
O  O186  1  0.12396433  0.17529608  0.70263898  1  -1.158156  0.000236  -0.285167  -0.491088  0.000154  2.162366  0.0
O  O187  1  0.62398403  0.82470750  0.20263712  1  -1.157994  0.000236  -0.285177  -0.491285  0.000154  2.162222  0.0
O  O188  1  0.95658219  0.98171203  0.53177091  1  -1.14646  0.00035  -0.282017  -0.489197  0.000202  2.135024  0.0
O  O189  1  0.45658125  0.01827593  0.03178092  1  -1.14646  0.00035  -0.282079  -0.489351  0.000202  2.135098  0.0
O  O190  1  0.74516463  0.23539300  0.34173069  1  -1.22806  0.100651  -0.314907  -0.628421  0.075775  2.419004  0.041
O  O191  1  0.24515283  0.76465517  0.84172285  1  -1.228208  0.100702  -0.315079  -0.628552  0.075788  2.419039  0.041
O  O192  1  0.56050741  0.17076875  0.38226586  1  -1.166139  0.017445  -0.304073  -0.517066  0.011265  2.121205  0.013
O  O193  1  0.06049842  0.82925739  0.88227213  1  -1.16618  0.017448  -0.303912  -0.516916  0.011268  2.120905  0.013
O  O194  1  0.98915741  0.51974969  0.73250651  1  -1.199801  0.069309  -0.304902  -0.564822  0.049346  2.299357  0.032
O  O195  1  0.48915607  0.48026942  0.23251441  1  -1.199571  0.069311  -0.304984  -0.564927  0.049345  2.299279  0.032
O  O196  1  0.78981941  0.50281087  0.77427132  1  -1.216062  0.06743  -0.325461  -0.599509  0.047186  2.296873  0.029
O  O197  1  0.28984029  0.49723372  0.27428947  1  -1.216482  0.067394  -0.325456  -0.599765  0.047179  2.296515  0.029
O  O198  1  0.30297740  0.86539696  0.73165679  1  -1.210337  0.063897  -0.305845  -0.578382  0.045645  2.311948  0.032
O  O199  1  0.80298855  0.13461182  0.23165307  1  -1.210759  0.063878  -0.305786  -0.578339  0.045632  2.312409  0.032
O  O200  1  0.15988015  0.72011207  0.70369394  1  -1.214448  0.067942  -0.327368  -0.593346  0.047058  2.262705  0.03
O  O201  1  0.65988215  0.27988544  0.20371423  1  -1.214067  0.067905  -0.327382  -0.593367  0.047067  2.262674  0.03
O  O202  1  0.43156925  0.24571347  0.28098062  1  -1.325286  0.107747  -0.558459  -0.809358  0.084046  2.310403  0.051
O  O203  1  0.93158303  0.75432724  0.78097500  1  -1.325037  0.1077  -0.558479  -0.809178  0.084028  2.310455  0.051
O  O204  1  0.94278006  0.02924399  0.34782236  1  -1.189804  0.052828  -0.290209  -0.467083  0.036884  2.379292  0.022
O  O205  1  0.44279068  0.97076766  0.84782417  1  -1.190038  0.052853  -0.290079  -0.466798  0.036886  2.37952  0.022
O  O206  1  0.17874510  0.34066256  0.17822080  1  -1.188772  0.046449  -0.295801  -0.480775  0.031793  2.40693  0.014
O  O207  1  0.67872867  0.65933723  0.67821717  1  -1.1894  0.046414  -0.295735  -0.480595  0.03177  2.406833  0.014
O  O208  1  0.54740721  0.41902885  0.36794411  1  -1.236301  0.049786  -0.562043  -0.748223  0.036517  2.024149  0.023
O  O209  1  0.04743174  0.58101580  0.86792073  1  -1.236475  0.049809  -0.562062  -0.747997  0.036523  2.024993  0.023
