# generated using pymatgen
data_AgH10C8(NO)3
_symmetry_space_group_name_H-M   'P 1'
_cell_length_a   5.01165947
_cell_length_b   13.58504319
_cell_length_c   14.03683112
_cell_angle_alpha   90.00047754
_cell_angle_beta   89.99916425
_cell_angle_gamma   89.99836492
_symmetry_Int_Tables_number   1
_chemical_formula_structural   AgH10C8(NO)3
_chemical_formula_sum   'Ag4 H40 C32 N12 O12'
_cell_volume   955.67813914
_cell_formula_units_Z   4
loop_
 _symmetry_equiv_pos_site_id
 _symmetry_equiv_pos_as_xyz
  1  'x, y, z'
loop_
 _atom_site_type_symbol
 _atom_site_label
 _atom_site_symmetry_multiplicity
 _atom_site_fract_x
 _atom_site_fract_y
 _atom_site_fract_z
 _atom_site_occupancy
 _atom_site_hle17_bader_spin_density
 _atom_site_hle17_ddec_charge
 _atom_site_hle17_ddec_spin_density
 _atom_site_hle17_ddec_sum_bond_order
 _atom_site_hle17_magmom
 _atom_site_hse06_10hf_bader_spin_density
 _atom_site_hse06_10hf_ddec_charge
 _atom_site_hse06_10hf_ddec_spin_density
 _atom_site_hse06_10hf_ddec_sum_bond_order
 _atom_site_hse06_10hf_magmom
 _atom_site_hse06_bader_spin_density
 _atom_site_hse06_ddec_charge
 _atom_site_hse06_ddec_spin_density
 _atom_site_hse06_ddec_sum_bond_order
 _atom_site_hse06_magmom
 _atom_site_pbe_bader_spin_density
 _atom_site_pbe_cm5_charge
 _atom_site_pbe_ddec_charge
 _atom_site_pbe_ddec_spin_density
 _atom_site_pbe_ddec_sum_bond_order
 _atom_site_pbe_magmom
Ag  Ag0  1  0.70178164  0.25179915  0.88279938  1  0  0.592481  0  1.346464  0  0  0.467857  0  1.770761  0  0  0.498895  0  1.722727  0  0  0.447995  0.446041  0  1.80398  0
Ag  Ag1  1  0.20175223  0.24817885  0.11718819  1  0  0.592426  0  1.346315  0  0  0.46785  0  1.770577  0  0  0.498887  0  1.722541  0  0  0.447975  0.446036  0  1.803798  0
Ag  Ag2  1  0.29823164  0.75181806  0.61720388  1  0  0.592427  0  1.346405  0  0  0.467836  0  1.770661  0  0  0.498875  0  1.722628  0  0  0.447928  0.446014  0  1.803886  0
Ag  Ag3  1  0.79824571  0.74819944  0.38279515  1  0  0.592485  0  1.346498  0  0  0.467883  0  1.770779  0  0  0.498919  0  1.722746  0  0  0.448025  0.446064  0  1.804004  0
H  H4  1  0.24734983  0.13372311  0.74869461  1  0  0.088014  0  0.950862  0  0  0.099561  0  1.015875  0  0  0.101394  0  1.012831  0  0  0.135088  0.098156  0  1.018078  0
H  H5  1  0.74733550  0.36628000  0.25129860  1  0  0.088083  0  0.950838  0  0  0.099657  0  1.015819  0  0  0.101491  0  1.012772  0  0  0.135083  0.098253  0  1.01802  0
H  H6  1  0.75266110  0.63371966  0.75130780  1  0  0.088008  0  0.951013  0  0  0.099604  0  1.015963  0  0  0.101438  0  1.01292  0  0  0.13511  0.098202  0  1.018166  0
H  H7  1  0.25264485  0.86628893  0.24869130  1  0  0.08794  0  0.951  0  0  0.099435  0  1.016061  0  0  0.101268  0  1.013025  0  0  0.135041  0.09803  0  1.018265  0
H  H8  1  0.58009651  0.86354652  0.84113885  1  0  0.117507  0  0.964146  0  0  0.130125  0  1.023937  0  0  0.132639  0  1.022541  0  0  0.122217  0.128249  0  1.025075  0
H  H9  1  0.08017204  0.63643792  0.15886123  1  0  0.117539  0  0.963909  0  0  0.130082  0  1.023774  0  0  0.132595  0  1.022378  0  0  0.122171  0.128206  0  1.02491  0
H  H10  1  0.41984885  0.36356133  0.65885877  1  0  0.117561  0  0.963892  0  0  0.130136  0  1.02371  0  0  0.132646  0  1.022315  0  0  0.122212  0.128258  0  1.024844  0
H  H11  1  0.91985194  0.13645489  0.34114913  1  0  0.117573  0  0.963918  0  0  0.130131  0  1.023764  0  0  0.132651  0  1.022366  0  0  0.122186  0.128256  0  1.024906  0
H  H12  1  0.01408512  0.08562777  0.94803362  1  0  0.102942  0  0.939573  0  0  0.113231  0  1.013495  0  0  0.115613  0  1.010984  0  0  0.099172  0.111458  0  1.015381  0
H  H13  1  0.51407609  0.41433759  0.05194641  1  0  0.103068  0  0.939436  0  0  0.113374  0  1.013358  0  0  0.115755  0  1.010849  0  0  0.09919  0.111605  0  1.015242  0
H  H14  1  0.98594038  0.58566514  0.55195390  1  0  0.103099  0  0.939313  0  0  0.113375  0  1.013277  0  0  0.115756  0  1.010766  0  0  0.099218  0.111604  0  1.015164  0
H  H15  1  0.48591364  0.91435912  0.44804412  1  0  0.103065  0  0.939299  0  0  0.113322  0  1.013299  0  0  0.115705  0  1.010789  0  0  0.099177  0.11155  0  1.01518  0
H  H16  1  0.01842582  0.95511850  0.94698928  1  0  0.096413  0  0.951369  0  0  0.110964  0  1.015757  0  0  0.112409  0  1.015442  0  0  0.09861  0.109881  0  1.016082  0
H  H17  1  0.51844249  0.54484428  0.05299665  1  0  0.096409  0  0.951193  0  0  0.110964  0  1.015648  0  0  0.112424  0  1.015295  0  0  0.098587  0.109871  0  1.016004  0
H  H18  1  0.98157390  0.45515771  0.55299744  1  0  0.096486  0  0.951234  0  0  0.111024  0  1.01569  0  0  0.112484  0  1.015338  0  0  0.098628  0.109929  0  1.016045  0
H  H19  1  0.48153710  0.04486618  0.44700324  1  0  0.096319  0  0.951403  0  0  0.110892  0  1.015852  0  0  0.112356  0  1.0155  0  0  0.098544  0.109798  0  1.016201  0
H  H20  1  0.95823449  0.01793830  0.10439616  1  0  0.077129  0  0.949977  0  0  0.082533  0  1.02104  0  0  0.084976  0  1.019196  0  0  0.116986  0.080702  0  1.022607  0
H  H21  1  0.45821332  0.48203699  0.89558745  1  0  0.077123  0  0.950001  0  0  0.08242  0  1.021211  0  0  0.084854  0  1.019386  0  0  0.116947  0.080614  0  1.022781  0
H  H22  1  0.04180505  0.51797109  0.39559268  1  0  0.077139  0  0.949854  0  0  0.082443  0  1.021066  0  0  0.084872  0  1.019256  0  0  0.116937  0.080627  0  1.022633  0
H  H23  1  0.54176036  0.98205649  0.60440817  1  0  0.077105  0  0.950154  0  0  0.082494  0  1.021226  0  0  0.084931  0  1.019395  0  0  0.116972  0.080674  0  1.022786  0
H  H24  1  0.38529870  0.76651226  0.11354892  1  0  0.147349  0  0.984569  0  0  0.163731  0  1.044199  0  0  0.167647  0  1.041749  0  0  0.096399  0.160926  0  1.045959  0
H  H25  1  0.88527269  0.73346871  0.88647420  1  0  0.147324  0  0.984526  0  0  0.163749  0  1.044087  0  0  0.16766  0  1.041634  0  0  0.096394  0.160956  0  1.045844  0
H  H26  1  0.61473446  0.26653799  0.38646672  1  0  0.14732  0  0.984579  0  0  0.163717  0  1.044145  0  0  0.167627  0  1.041694  0  0  0.096384  0.160899  0  1.045933  0
H  H27  1  0.11470339  0.23348244  0.61353595  1  0  0.1474  0  0.984617  0  0  0.163728  0  1.044264  0  0  0.167642  0  1.041816  0  0  0.096396  0.16092  0  1.046024  0
H  H28  1  0.63187376  0.74349875  0.20347985  1  0  0.105099  0  0.987729  0  0  0.112424  0  1.082042  0  0  0.117408  0  1.075603  0  0  0.080191  0.108846  0  1.086616  0
H  H29  1  0.13183557  0.75649367  0.79654224  1  0  0.105374  0  0.987494  0  0  0.112663  0  1.081827  0  0  0.117654  0  1.075362  0  0  0.080285  0.109086  0  1.086395  0
H  H30  1  0.36817972  0.24351336  0.29653549  1  0  0.105295  0  0.9875  0  0  0.112596  0  1.081815  0  0  0.117583  0  1.075361  0  0  0.080243  0.109014  0  1.086392  0
H  H31  1  0.86813016  0.25650370  0.70346821  1  0  0.105161  0  0.987603  0  0  0.112472  0  1.081911  0  0  0.11746  0  1.075456  0  0  0.080211  0.108893  0  1.086485  0
H  H32  1  0.66739307  0.69004071  0.08815714  1  0  0.138445  0  0.961306  0  0  0.155243  0  1.023505  0  0  0.158343  0  1.022435  0  0  0.095903  0.153027  0  1.024324  0
H  H33  1  0.16734065  0.80994106  0.91186988  1  0  0.138533  0  0.961322  0  0  0.155346  0  1.023492  0  0  0.15845  0  1.022411  0  0  0.095906  0.153109  0  1.024332  0
H  H34  1  0.33267061  0.19006265  0.41186034  1  0  0.138555  0  0.961369  0  0  0.155339  0  1.023563  0  0  0.158439  0  1.022489  0  0  0.095924  0.15312  0  1.024384  0
H  H35  1  0.83261689  0.30995624  0.58814270  1  0  0.138456  0  0.961193  0  0  0.155215  0  1.023431  0  0  0.158312  0  1.022364  0  0  0.095904  0.153004  0  1.024241  0
H  H36  1  0.43118458  0.92899829  0.08110817  1  0  0.301904  0  0.894113  0  0  0.283449  0  0.960913  0  0  0.291101  0  0.955124  0  0  0.31241  0.278025  0  0.965069  0
H  H37  1  0.93117476  0.57099011  0.91889707  1  0  0.3019  0  0.894152  0  0  0.283536  0  0.960861  0  0  0.291178  0  0.955076  0  0  0.31239  0.278113  0  0.96502  0
H  H38  1  0.56883412  0.42901154  0.41889467  1  0  0.301941  0  0.894103  0  0  0.283497  0  0.9609  0  0  0.291138  0  0.955114  0  0  0.312385  0.278071  0  0.965063  0
H  H39  1  0.06880779  0.07099410  0.58110878  1  0  0.301956  0  0.894052  0  0  0.283477  0  0.960897  0  0  0.291119  0  0.955113  0  0  0.312408  0.27805  0  0.96506  0
H  H40  1  0.24070086  0.94809821  0.72859148  1  0  0.300979  0  0.932213  0  0  0.281255  0  0.995911  0  0  0.289487  0  0.989721  0  0  0.310161  0.27546  0  1.000287  0
H  H41  1  0.74074673  0.55190413  0.27140978  1  0  0.300826  0  0.932232  0  0  0.281158  0  0.995866  0  0  0.289392  0  0.989678  0  0  0.310143  0.275364  0  1.000238  0
H  H42  1  0.75926643  0.44809486  0.77140940  1  0  0.300867  0  0.932262  0  0  0.281174  0  0.995899  0  0  0.289406  0  0.989716  0  0  0.310166  0.275383  0  1.000266  0
H  H43  1  0.25926529  0.05191377  0.22859376  1  0  0.300822  0  0.932304  0  0  0.281137  0  0.995937  0  0  0.28937  0  0.989751  0  0  0.310161  0.275345  0  1.000307  0
C  C44  1  0.62093903  0.10966563  0.08294774  1  0  0.639531  0  3.854879  0  0  0.587184  0  4.145344  0  0  0.620808  0  4.140541  0  0  0.201748  0.564226  0  4.147817  0
C  C45  1  0.12092984  0.39031485  0.91704352  1  0  0.639695  0  3.854739  0  0  0.587411  0  4.145054  0  0  0.621034  0  4.140247  0  0  0.201853  0.564482  0  4.147535  0
C  C46  1  0.37910102  0.60968741  0.41704445  1  0  0.639764  0  3.854355  0  0  0.587548  0  4.144582  0  0  0.621172  0  4.139765  0  0  0.201915  0.564601  0  4.147069  0
C  C47  1  0.87904734  0.89032982  0.58295232  1  0  0.639917  0  3.854122  0  0  0.587461  0  4.144741  0  0  0.621094  0  4.139921  0  0  0.201848  0.564496  0  4.147238  0
C  C48  1  0.37170268  0.08264082  0.78762390  1  0  0.222593  0  3.691162  0  0  0.162236  0  3.961588  0  0  0.177353  0  3.974604  0  0  0.141076  0.152322  0  3.952495  0
C  C49  1  0.87170265  0.41735185  0.21236840  1  0  0.222429  0  3.691598  0  0  0.162082  0  3.961981  0  0  0.1772  0  3.975003  0  0  0.141069  0.152173  0  3.95288  0
C  C50  1  0.62830065  0.58264843  0.71237641  1  0  0.222588  0  3.691535  0  0  0.162232  0  3.961928  0  0  0.177345  0  3.974953  0  0  0.141118  0.152316  0  3.952842  0
C  C51  1  0.12828530  0.91736693  0.28762431  1  0  0.222556  0  3.691383  0  0  0.162275  0  3.961836  0  0  0.177389  0  3.974855  0  0  0.141064  0.152354  0  3.952746  0
C  C52  1  0.67789919  0.01981497  0.88087435  1  0  0.167128  0  3.77271  0  0  0.167616  0  4.028774  0  0  0.170803  0  4.055222  0  0  0.067701  0.16538  0  4.010819  0
C  C53  1  0.17790599  0.48016303  0.11911753  1  0  0.167344  0  3.773185  0  0  0.16778  0  4.029316  0  0  0.170966  0  4.05577  0  0  0.06785  0.165549  0  4.011355  0
C  C54  1  0.32210370  0.51983757  0.61912228  1  0  0.167266  0  3.773269  0  0  0.167809  0  4.029231  0  0  0.170993  0  4.055688  0  0  0.067932  0.165583  0  4.011257  0
C  C55  1  0.82207642  0.98018361  0.38087957  1  0  0.167155  0  3.772615  0  0  0.167647  0  4.028731  0  0  0.170835  0  4.055184  0  0  0.067717  0.165416  0  4.01077  0
C  C56  1  0.55116894  0.94244255  0.83603425  1  0  -0.0807  0  3.650645  0  0  -0.120391  0  3.904682  0  0  -0.120902  0  3.925133  0  0  -0.00683  -0.120023  0  3.891021  0
C  C57  1  0.05121459  0.55753836  0.16396302  1  0  -0.080891  0  3.651087  0  0  -0.120443  0  3.905181  0  0  -0.120955  0  3.925641  0  0  -0.006813  -0.120068  0  3.891507  0
C  C58  1  0.44880394  0.44246090  0.66396441  1  0  -0.080912  0  3.650948  0  0  -0.120515  0  3.905019  0  0  -0.121022  0  3.925472  0  0  -0.006897  -0.120138  0  3.891347  0
C  C59  1  0.94879184  0.05755958  0.33603988  1  0  -0.080777  0  3.650359  0  0  -0.120362  0  3.904472  0  0  -0.120882  0  3.924933  0  0  -0.006782  -0.120003  0  3.890814  0
C  C60  1  0.88897039  0.01959617  0.95519652  1  0  -0.208758  0  3.704519  0  0  -0.257851  0  3.948171  0  0  -0.259515  0  3.96032  0  0  -0.158964  -0.256515  0  3.939868  0
C  C61  1  0.38899036  0.48037094  0.04479219  1  0  -0.208764  0  3.704116  0  0  -0.257978  0  3.948011  0  0  -0.259646  0  3.960183  0  0  -0.159016  -0.256629  0  3.93975  0
C  C62  1  0.11102849  0.51962943  0.54479654  1  0  -0.208841  0  3.703983  0  0  -0.258063  0  3.947926  0  0  -0.259727  0  3.960091  0  0  -0.159069  -0.256721  0  3.939639  0
C  C63  1  0.61100404  0.98039381  0.45520563  1  0  -0.208697  0  3.704311  0  0  -0.257809  0  3.94794  0  0  -0.259484  0  3.960108  0  0  -0.158894  -0.256457  0  3.939632  0
C  C64  1  0.78035485  0.01707824  0.05869367  1  0  0.049997  0  3.626368  0  0  0.034698  0  3.862388  0  0  0.034095  0  3.874502  0  0  0.011119  0.035084  0  3.854157  0
C  C65  1  0.28034453  0.48289882  0.94129592  1  0  0.049974  0  3.626447  0  0  0.034752  0  3.862529  0  0  0.034144  0  3.874621  0  0  0.011056  0.035023  0  3.854473  0
C  C66  1  0.21967865  0.51710498  0.44129730  1  0  0.049994  0  3.626361  0  0  0.034715  0  3.862399  0  0  0.0341  0  3.874494  0  0  0.011074  0.035045  0  3.854258  0
C  C67  1  0.71962921  0.98291493  0.55869758  1  0  0.049918  0  3.626545  0  0  0.03466  0  3.862657  0  0  0.034055  0  3.874739  0  0  0.011065  0.035014  0  3.854461  0
C  C68  1  0.76536569  0.84213958  0.09671698  1  0  0.642561  0  3.794803  0  0  0.610359  0  4.074087  0  0  0.638878  0  4.07453  0  0  0.23705  0.591105  0  4.073081  0
C  C69  1  0.26534902  0.65784360  0.90329706  1  0  0.642488  0  3.795056  0  0  0.610594  0  4.073918  0  0  0.639094  0  4.074365  0  0  0.237164  0.591343  0  4.0729  0
C  C70  1  0.23466084  0.34216156  0.40329396  1  0  0.642691  0  3.794835  0  0  0.610536  0  4.074031  0  0  0.639037  0  4.074474  0  0  0.237154  0.591288  0  4.073007  0
C  C71  1  0.73463568  0.15785813  0.59671066  1  0  0.642558  0  3.794873  0  0  0.610322  0  4.074181  0  0  0.638824  0  4.07463  0  0  0.236992  0.591068  0  4.073172  0
C  C72  1  0.59868227  0.75545862  0.12648038  1  0  -0.454855  0  3.665963  0  0  -0.530999  0  3.90162  0  0  -0.53852  0  3.902815  0  0  -0.252293  -0.525543  0  3.900615  0
C  C73  1  0.09864586  0.74452820  0.87354105  1  0  -0.455289  0  3.666004  0  0  -0.53155  0  3.901542  0  0  -0.539069  0  3.902745  0  0  -0.252456  -0.526098  0  3.900582  0
C  C74  1  0.40136208  0.25547686  0.37353298  1  0  -0.45529  0  3.66607  0  0  -0.531418  0  3.901657  0  0  -0.538945  0  3.902878  0  0  -0.252418  -0.525952  0  3.9007  0
C  C75  1  0.90132302  0.24453771  0.62646924  1  0  -0.454976  0  3.665951  0  0  -0.531033  0  3.901635  0  0  -0.538549  0  3.902838  0  0  -0.252309  -0.525589  0  3.900644  0
N  N76  1  0.63440469  0.92744641  0.07972450  1  0  -0.449213  0  3.288019  0  0  -0.398528  0  3.530627  0  0  -0.419437  0  3.540096  0  0  -0.421309  -0.384246  0  3.5239  0
N  N77  1  0.13439478  0.57253563  0.92027407  1  0  -0.449072  0  3.288178  0  0  -0.398625  0  3.530717  0  0  -0.419498  0  3.540163  0  0  -0.421217  -0.384306  0  3.524011  0
N  N78  1  0.36561789  0.42746737  0.42027191  1  0  -0.449236  0  3.288291  0  0  -0.39853  0  3.53083  0  0  -0.419401  0  3.54028  0  0  -0.421216  -0.384227  0  3.524106  0
N  N79  1  0.86558789  0.07254757  0.57972681  1  0  -0.44916  0  3.288008  0  0  -0.398468  0  3.530651  0  0  -0.419349  0  3.540109  0  0  -0.421228  -0.38417  0  3.523922  0
N  N80  1  0.35860546  0.98375628  0.77807572  1  0  -0.282621  0  3.491262  0  0  -0.215978  0  3.729148  0  0  -0.232225  0  3.74532  0  0  -0.384674  -0.205111  0  3.718138  0
N  N81  1  0.85864227  0.51623507  0.22192321  1  0  -0.282438  0  3.491304  0  0  -0.21588  0  3.729236  0  0  -0.232132  0  3.74541  0  0  -0.384692  -0.205006  0  3.718219  0
N  N82  1  0.64136635  0.48376523  0.72192491  1  0  -0.282494  0  3.491146  0  0  -0.215926  0  3.729139  0  0  -0.232174  0  3.745312  0  0  -0.384726  -0.20507  0  3.718139  0
N  N83  1  0.14136124  0.01625069  0.27807843  1  0  -0.282418  0  3.491297  0  0  -0.215857  0  3.729284  0  0  -0.23211  0  3.745473  0  0  -0.384623  -0.204982  0  3.718269  0
N  N84  1  0.56320883  0.10704791  0.84900600  1  0  -0.417049  0  3.309476  0  0  -0.334715  0  3.602631  0  0  -0.358097  0  3.619575  0  0  -0.374441  -0.318653  0  3.590535  0
N  N85  1  0.06318530  0.39294023  0.15098464  1  0  -0.417138  0  3.309922  0  0  -0.334769  0  3.603054  0  0  -0.358148  0  3.619996  0  0  -0.374428  -0.318703  0  3.590951  0
N  N86  1  0.43681817  0.60705973  0.65099178  1  0  -0.417183  0  3.309812  0  0  -0.334841  0  3.602906  0  0  -0.35822  0  3.619852  0  0  -0.374541  -0.318776  0  3.590807  0
N  N87  1  0.93679094  0.89295426  0.34900775  1  0  -0.417043  0  3.309454  0  0  -0.334699  0  3.602585  0  0  -0.358079  0  3.619526  0  0  -0.374447  -0.318637  0  3.59049  0
O  O88  1  0.38258130  0.09884126  0.11656442  1  0  -0.638722  0  2.08513  0  0  -0.554728  0  2.340884  0  0  -0.585447  0  2.330064  0  0  -0.331955  -0.533205  0  2.3476  0
O  O89  1  0.88258928  0.40113856  0.88342929  1  0  -0.638779  0  2.08546  0  0  -0.554689  0  2.341059  0  0  -0.585406  0  2.330246  0  0  -0.331959  -0.533164  0  2.347759  0
O  O90  1  0.61743204  0.59886224  0.38343191  1  0  -0.638889  0  2.085452  0  0  -0.554859  0  2.341061  0  0  -0.585571  0  2.330236  0  0  -0.332055  -0.533338  0  2.347777  0
O  O91  1  0.11740263  0.90115050  0.61656740  1  0  -0.638974  0  2.085181  0  0  -0.55486  0  2.340926  0  0  -0.585586  0  2.330105  0  0  -0.331994  -0.533334  0  2.347651  0
O  O92  1  0.72698717  0.19187278  0.06799825  1  0  -0.645554  0  2.077669  0  0  -0.586049  0  2.364852  0  0  -0.612074  0  2.347699  0  0  -0.327886  -0.567854  0  2.376192  0
O  O93  1  0.22698509  0.30810592  0.93199427  1  0  -0.64577  0  2.07755  0  0  -0.586278  0  2.364719  0  0  -0.612313  0  2.347575  0  0  -0.327963  -0.568075  0  2.376042  0
O  O94  1  0.27303673  0.69190079  0.43199717  1  0  -0.645683  0  2.077093  0  0  -0.586219  0  2.364246  0  0  -0.612253  0  2.347095  0  0  -0.327912  -0.568019  0  2.375584  0
O  O95  1  0.77300623  0.80811969  0.56800190  1  0  -0.645765  0  2.077177  0  0  -0.586246  0  2.364454  0  0  -0.612278  0  2.347301  0  0  -0.327949  -0.568042  0  2.375795  0
O  O96  1  0.01410357  0.83688133  0.09092562  1  0  -0.612509  0  1.922947  0  0  -0.563188  0  2.144515  0  0  -0.585588  0  2.1383  0  0  -0.315487  -0.547697  0  2.148387  0
O  O97  1  0.51408498  0.66310072  0.90908881  1  0  -0.612444  0  1.923057  0  0  -0.563235  0  2.144461  0  0  -0.585631  0  2.138247  0  0  -0.315516  -0.547748  0  2.148339  0
O  O98  1  0.98592060  0.33690605  0.40908597  1  0  -0.612507  0  1.922826  0  0  -0.563232  0  2.144366  0  0  -0.585626  0  2.138147  0  0  -0.315514  -0.547741  0  2.148237  0
O  O99  1  0.48589411  0.16311918  0.59091542  1  0  -0.612584  0  1.922906  0  0  -0.563209  0  2.144443  0  0  -0.585608  0  2.138232  0  0  -0.315456  -0.547715  0  2.148313  0
