# generated using pymatgen
data_Cu3H6C10(N2Cl)3
_symmetry_space_group_name_H-M   'P 1'
_cell_length_a   6.51698536
_cell_length_b   7.96832502
_cell_length_c   13.63692235
_cell_angle_alpha   96.07771353
_cell_angle_beta   90.00122185
_cell_angle_gamma   90.00008430
_symmetry_Int_Tables_number   1
_chemical_formula_structural   Cu3H6C10(N2Cl)3
_chemical_formula_sum   'Cu6 H12 C20 N12 Cl6'
_cell_volume   704.17756684
_cell_formula_units_Z   2
loop_
 _symmetry_equiv_pos_site_id
 _symmetry_equiv_pos_as_xyz
  1  'x, y, z'
loop_
 _atom_site_type_symbol
 _atom_site_label
 _atom_site_symmetry_multiplicity
 _atom_site_fract_x
 _atom_site_fract_y
 _atom_site_fract_z
 _atom_site_occupancy
 _atom_site_hle17_bader_spin_density
 _atom_site_hle17_ddec_charge
 _atom_site_hle17_ddec_spin_density
 _atom_site_hle17_ddec_sum_bond_order
 _atom_site_hle17_magmom
 _atom_site_hse06_10hf_bader_spin_density
 _atom_site_hse06_10hf_ddec_charge
 _atom_site_hse06_10hf_ddec_spin_density
 _atom_site_hse06_10hf_ddec_sum_bond_order
 _atom_site_hse06_10hf_magmom
 _atom_site_hse06_bader_spin_density
 _atom_site_hse06_ddec_charge
 _atom_site_hse06_ddec_spin_density
 _atom_site_hse06_ddec_sum_bond_order
 _atom_site_hse06_magmom
 _atom_site_pbe_bader_spin_density
 _atom_site_pbe_cm5_charge
 _atom_site_pbe_ddec_charge
 _atom_site_pbe_ddec_spin_density
 _atom_site_pbe_ddec_sum_bond_order
 _atom_site_pbe_magmom
Cu  Cu0  1  0.75950493  0.00000905  0.74999964  1  0  0.478192  0  2.008626  0  0  0.374733  0  2.509564  0  0  0.357137  0  2.475186  0  0  0.464718  0.390434  0  2.528633  0
Cu  Cu1  1  0.24049341  0.99999620  0.25000191  1  0  0.478249  0  2.008569  0  0  0.374761  0  2.509525  0  0  0.357166  0  2.475141  0  0  0.464685  0.390474  0  2.528605  0
Cu  Cu2  1  0.78263431  0.40285089  0.63015080  1  0  0.546465  0  2.087838  0  0  0.458877  0  2.598865  0  0  0.442116  0  2.562715  0  0  0.502161  0.473172  0  2.619893  0
Cu  Cu3  1  0.21737679  0.40284475  0.13014683  1  0  0.546441  0  2.087808  0  0  0.458814  0  2.598859  0  0  0.442062  0  2.562681  0  0  0.502154  0.473113  0  2.619894  0
Cu  Cu4  1  0.21736710  0.59715057  0.36985051  1  0  0.546444  0  2.087872  0  0  0.458841  0  2.598902  0  0  0.442064  0  2.56275  0  0  0.502147  0.473136  0  2.619934  0
Cu  Cu5  1  0.78262462  0.59715165  0.86984977  1  0  0.546382  0  2.087822  0  0  0.458757  0  2.598866  0  0  0.44198  0  2.562734  0  0  0.502103  0.473048  0  2.619901  0
H  H6  1  0.65475704  0.16396479  0.27529241  1  0  0.105878  0  0.944389  0  0  0.110288  0  1.012864  0  0  0.114632  0  1.009162  0  0  0.114172  0.106957  0  1.015854  0
H  H7  1  0.34522205  0.16397074  0.77528838  1  0  0.105773  0  0.944917  0  0  0.110278  0  1.013273  0  0  0.114614  0  1.00958  0  0  0.114234  0.106954  0  1.016268  0
H  H8  1  0.34523363  0.83603160  0.72470493  1  0  0.105934  0  0.944701  0  0  0.110365  0  1.013116  0  0  0.114713  0  1.00941  0  0  0.114235  0.107035  0  1.016107  0
H  H9  1  0.65476862  0.83602819  0.22471205  1  0  0.105871  0  0.944772  0  0  0.110337  0  1.013132  0  0  0.114678  0  1.00943  0  0  0.114256  0.107014  0  1.01613  0
H  H10  1  0.16996206  0.08509521  0.46562505  1  0  0.093733  0  0.957056  0  0  0.096653  0  1.027694  0  0  0.100381  0  1.024924  0  0  0.107706  0.093957  0  1.029846  0
H  H11  1  0.83004256  0.08510146  0.96561556  1  0  0.093789  0  0.956915  0  0  0.096705  0  1.027564  0  0  0.100427  0  1.024801  0  0  0.107716  0.094011  0  1.029719  0
H  H12  1  0.83004856  0.91491132  0.53438391  1  0  0.093743  0  0.956885  0  0  0.096642  0  1.027563  0  0  0.100373  0  1.024789  0  0  0.107708  0.093946  0  1.029713  0
H  H13  1  0.16997112  0.91490374  0.03437499  1  0  0.093777  0  0.957122  0  0  0.096676  0  1.027797  0  0  0.100401  0  1.02503  0  0  0.107733  0.093985  0  1.02995  0
H  H14  1  0.35429292  0.25470918  0.60393249  1  0  0.102307  0  0.955762  0  0  0.107256  0  1.022238  0  0  0.111026  0  1.020803  0  0  0.108525  0.104485  0  1.023505  0
H  H15  1  0.64571524  0.25468802  0.10392450  1  0  0.102398  0  0.955753  0  0  0.107232  0  1.022264  0  0  0.110996  0  1.020834  0  0  0.108535  0.104459  0  1.023533  0
H  H16  1  0.64571924  0.74529987  0.39607369  1  0  0.102343  0  0.955644  0  0  0.107246  0  1.022178  0  0  0.111017  0  1.020741  0  0  0.108534  0.104474  0  1.023445  0
H  H17  1  0.35429231  0.74530584  0.89606828  1  0  0.102345  0  0.95574  0  0  0.107223  0  1.022265  0  0  0.110993  0  1.020829  0  0  0.108521  0.10445  0  1.023535  0
C  C18  1  0.68742138  0.27626878  0.42541236  1  0  0.1313  0  3.830609  0  0  0.139754  0  4.069928  0  0  0.142135  0  4.079972  0  0  0.123293  0.137061  0  4.064526  0
C  C19  1  0.31258472  0.27625317  0.92540817  1  0  0.131439  0  3.830624  0  0  0.140017  0  4.069765  0  0  0.142398  0  4.079802  0  0  0.123487  0.137317  0  4.064377  0
C  C20  1  0.31258003  0.72373899  0.57458933  1  0  0.131328  0  3.831114  0  0  0.139911  0  4.070215  0  0  0.142299  0  4.080247  0  0  0.123421  0.137216  0  4.064812  0
C  C21  1  0.68740595  0.72373314  0.07459369  1  0  0.131243  0  3.831065  0  0  0.139898  0  4.070021  0  0  0.142279  0  4.080062  0  0  0.12333  0.1372  0  4.06463  0
C  C22  1  0.58455909  0.18197874  0.34812817  1  0  0.087723  0  3.630102  0  0  0.049477  0  3.880637  0  0  0.055682  0  3.888914  0  0  0.060628  0.045216  0  3.875857  0
C  C23  1  0.41541724  0.18197733  0.84811778  1  0  0.087684  0  3.630436  0  0  0.049333  0  3.88099  0  0  0.055551  0  3.889263  0  0  0.06051  0.045066  0  3.876219  0
C  C24  1  0.41543925  0.81802777  0.65187786  1  0  0.087573  0  3.630663  0  0  0.049326  0  3.88112  0  0  0.055527  0  3.889391  0  0  0.060511  0.045065  0  3.876339  0
C  C25  1  0.58458571  0.81801401  0.15187852  1  0  0.087646  0  3.630317  0  0  0.049373  0  3.880768  0  0  0.055583  0  3.889042  0  0  0.060478  0.045101  0  3.876005  0
C  C26  1  0.31975348  0.14037078  0.45408708  1  0  0.091863  0  3.636078  0  0  0.060485  0  3.893347  0  0  0.068322  0  3.90198  0  0  0.043827  0.054102  0  3.890051  0
C  C27  1  0.68025068  0.14037780  0.95407689  1  0  0.091528  0  3.63601  0  0  0.060124  0  3.89333  0  0  0.067998  0  3.901892  0  0  0.043642  0.05374  0  3.890039  0
C  C28  1  0.68024640  0.85963069  0.54591863  1  0  0.091867  0  3.63588  0  0  0.060547  0  3.893099  0  0  0.068364  0  3.901753  0  0  0.043816  0.054163  0  3.889802  0
C  C29  1  0.31974612  0.85962363  0.04591489  1  0  0.091786  0  3.635877  0  0  0.060422  0  3.893175  0  0  0.068274  0  3.90178  0  0  0.043792  0.054041  0  3.889871  0
C  C30  1  0.42278147  0.23295668  0.53076980  1  0  0.084043  0  3.647883  0  0  0.053838  0  3.911226  0  0  0.055809  0  3.920296  0  0  0.041984  0.051901  0  3.906034  0
C  C31  1  0.57722021  0.23294412  0.03076167  1  0  0.08403  0  3.64805  0  0  0.05404  0  3.911269  0  0  0.056  0  3.920382  0  0  0.042135  0.052103  0  3.906081  0
C  C32  1  0.57721687  0.76705363  0.46923571  1  0  0.0841  0  3.647925  0  0  0.053954  0  3.911198  0  0  0.055926  0  3.920283  0  0  0.042076  0.05202  0  3.906005  0
C  C33  1  0.42278273  0.76704090  0.96923132  1  0  0.084106  0  3.647706  0  0  0.053985  0  3.911028  0  0  0.055954  0  3.920113  0  0  0.042046  0.052046  0  3.905842  0
C  C34  1  0.12633326  0.64170467  0.59368123  1  0  0.284363  0  3.67132  0  0  0.259032  0  3.944738  0  0  0.272346  0  3.952466  0  0  0.200494  0.249927  0  3.940936  0
C  C35  1  0.87366883  0.64167796  0.09367882  1  0  0.284153  0  3.671594  0  0  0.258778  0  3.945007  0  0  0.272091  0  3.952746  0  0  0.200431  0.249679  0  3.941198  0
C  C36  1  0.87367736  0.35830943  0.40632672  1  0  0.284297  0  3.671313  0  0  0.258974  0  3.944825  0  0  0.272286  0  3.952557  0  0  0.200466  0.249869  0  3.94102  0
C  C37  1  0.12631724  0.35830708  0.90631856  1  0  0.284127  0  3.671422  0  0  0.258774  0  3.944884  0  0  0.272088  0  3.952615  0  0  0.200396  0.249676  0  3.941073  0
N  N38  1  0.60853890  0.30193743  0.51824849  1  0  -0.276503  0  3.311684  0  0  -0.228253  0  3.613388  0  0  -0.223199  0  3.611614  0  0  -0.339456  -0.231822  0  3.614621  0
N  N39  1  0.39145924  0.30192555  0.01824662  1  0  -0.276517  0  3.311825  0  0  -0.228303  0  3.613394  0  0  -0.223263  0  3.611628  0  0  -0.339567  -0.231875  0  3.614636  0
N  N40  1  0.39145791  0.69807159  0.48174962  1  0  -0.27654  0  3.311846  0  0  -0.228336  0  3.613484  0  0  -0.223288  0  3.611707  0  0  -0.339492  -0.231907  0  3.614722  0
N  N41  1  0.60854371  0.69806076  0.98175304  1  0  -0.276502  0  3.311702  0  0  -0.228288  0  3.613278  0  0  -0.223238  0  3.611502  0  0  -0.339456  -0.231858  0  3.614517  0
N  N42  1  0.39959040  0.11363689  0.36194520  1  0  -0.2479  0  3.346179  0  0  -0.185897  0  3.654759  0  0  -0.184244  0  3.651248  0  0  -0.350569  -0.187891  0  3.657216  0
N  N43  1  0.60039874  0.11364364  0.86193200  1  0  -0.247615  0  3.345608  0  0  -0.185648  0  3.654218  0  0  -0.184015  0  3.650725  0  0  -0.350526  -0.187639  0  3.656668  0
N  N44  1  0.60040794  0.88636332  0.63806191  1  0  -0.247944  0  3.34615  0  0  -0.186049  0  3.654819  0  0  -0.184382  0  3.651293  0  0  -0.350692  -0.188036  0  3.657266  0
N  N45  1  0.39960114  0.88636157  0.13806147  1  0  -0.24784  0  3.345294  0  0  -0.185936  0  3.653957  0  0  -0.184291  0  3.650449  0  0  -0.350561  -0.187931  0  3.656421  0
N  N46  1  0.97894258  0.56776651  0.61236829  1  0  -0.380319  0  3.126182  0  0  -0.344254  0  3.46975  0  0  -0.341566  0  3.462341  0  0  -0.370194  -0.347641  0  3.475273  0
N  N47  1  0.02105720  0.56774965  0.11236906  1  0  -0.380046  0  3.126683  0  0  -0.343966  0  3.470248  0  0  -0.341282  0  3.462839  0  0  -0.370089  -0.347352  0  3.475775  0
N  N48  1  0.02106344  0.43223116  0.38763353  1  0  -0.380181  0  3.126475  0  0  -0.344095  0  3.470012  0  0  -0.341409  0  3.462601  0  0  -0.370114  -0.347481  0  3.475534  0
N  N49  1  0.97893654  0.43223539  0.88762832  1  0  -0.380105  0  3.126759  0  0  -0.344015  0  3.470326  0  0  -0.34133  0  3.462913  0  0  -0.37011  -0.347397  0  3.475851  0
Cl  Cl50  1  0.53881582  0.49999518  0.74999615  1  0  -0.576346  0  1.23911  0  0  -0.513727  0  1.604064  0  0  -0.529511  0  1.578104  0  0  -0.314297  -0.502415  0  1.620432  0
Cl  Cl51  1  0.46117332  0.49999870  0.25000324  1  0  -0.576406  0  1.239213  0  0  -0.513765  0  1.604132  0  0  -0.529548  0  1.578166  0  0  -0.314326  -0.502458  0  1.620504  0
Cl  Cl52  1  0.97878553  0.16977355  0.66797963  1  0  -0.573862  0  1.222918  0  0  -0.507797  0  1.583896  0  0  -0.527275  0  1.560032  0  0  -0.317779  -0.493479  0  1.598233  0
Cl  Cl53  1  0.02122545  0.16976805  0.16797890  1  0  -0.573908  0  1.222898  0  0  -0.507832  0  1.583881  0  0  -0.527315  0  1.560018  0  0  -0.317815  -0.493501  0  1.598192  0
Cl  Cl54  1  0.02122049  0.83022790  0.33202021  1  0  -0.573863  0  1.222939  0  0  -0.507786  0  1.583919  0  0  -0.527259  0  1.560048  0  0  -0.317772  -0.493472  0  1.598262  0
Cl  Cl55  1  0.97877289  0.83023215  0.83202380  1  0  -0.573867  0  1.222912  0  0  -0.507777  0  1.583875  0  0  -0.527271  0  1.560045  0  0  -0.31779  -0.493457  0  1.59821  0
