# generated using pymatgen
data_Zn4H20C31O16
_symmetry_space_group_name_H-M   'P 1'
_cell_length_a   10.89712964
_cell_length_b   10.92540744
_cell_length_c   17.96384712
_cell_angle_alpha   71.93832337
_cell_angle_beta   81.24949630
_cell_angle_gamma   80.33436730
_symmetry_Int_Tables_number   1
_chemical_formula_structural   Zn4H20C31O16
_chemical_formula_sum   'Zn4 H20 C31 O16'
_cell_volume   1992.98428360
_cell_formula_units_Z   1
loop_
 _symmetry_equiv_pos_site_id
 _symmetry_equiv_pos_as_xyz
  1  'x, y, z'
loop_
 _atom_site_type_symbol
 _atom_site_label
 _atom_site_symmetry_multiplicity
 _atom_site_fract_x
 _atom_site_fract_y
 _atom_site_fract_z
 _atom_site_occupancy
 _atom_site_pbe_bader_charge
 _atom_site_pbe_bader_spin_density
 _atom_site_pbe_cm5_charge
 _atom_site_pbe_ddec_charge
 _atom_site_pbe_ddec_spin_density
 _atom_site_pbe_ddec_sum_bond_order
 _atom_site_pbe_magmom
Zn  Zn0  1  0.56941196  0.57618641  0.56706939  1  1.312204  0  0.670954  0.955616  0  2.413278  0
Zn  Zn1  1  0.62825337  0.40696822  0.44523083  1  1.312845  0  0.673468  0.961871  0  2.376414  0
Zn  Zn2  1  0.40776300  0.64486419  0.41994859  1  1.312274  0  0.669323  0.965994  0  2.338397  0
Zn  Zn3  1  0.38179119  0.38607847  0.57035494  1  1.313369  0  0.67009  0.959804  0  2.384653  0
H  H4  1  0.32666580  0.22025440  0.08443724  1  0.053036  0  0.103166  0.104674  0  0.992317  0
H  H5  1  0.56596793  0.95333613  0.57027896  1  0.141392  0  0.126327  0.147093  0  0.960965  0
H  H6  1  0.29929007  0.57329972  0.13165211  1  0.031979  0  0.095091  0.091825  0  1.006246  0
H  H7  1  0.31176802  0.64523185  0.20759143  1  0.052447  0  0.097666  0.102132  0  0.99653  0
H  H8  1  0.24223613  0.49782122  0.23196499  1  0.079163  0  0.1104  0.11946  0  0.96677  0
H  H9  1  0.61774180  0.85670337  0.22046063  1  0.061446  0  0.095817  0.098614  0  0.999224  0
H  H10  1  0.72405928  0.91134171  0.13357500  1  0.050147  0  0.093949  0.088378  0  0.99387  0
H  H11  1  0.77428577  0.87789221  0.22937223  1  0.068411  0  0.108964  0.115548  0  0.969944  0
H  H12  1  0.55093793  0.51734883  0.80221063  1  0.127702  0  0.109903  0.12149  0  1.044227  0
H  H13  1  0.74205888  0.35532014  0.85936117  1  0.045025  0  0.093645  0.089484  0  1.009196  0
H  H14  1  0.87179083  0.42980118  0.86892884  1  0.042442  0  0.094578  0.089857  0  0.993456  0
H  H15  1  0.81073106  0.72024750  0.04893372  1  0.060135  0  0.109124  0.129746  0  0.989024  0
H  H16  1  0.81654782  0.46360527  0.77426325  1  0.078332  0  0.109806  0.120636  0  0.968298  0
H  H17  1  0.42568536  0.05182390  0.42116033  1  0.083724  0  0.115939  0.139423  0  0.971561  0
H  H18  1  0.00041029  0.62172879  0.42208439  1  0.084745  0  0.116202  0.141572  0  0.969994  0
H  H19  1  0.00219765  0.38565440  0.57148809  1  0.141886  0  0.124286  0.144059  0  0.965603  0
H  H20  1  0.79272605  0.65565573  0.93402412  1  0.075828  0  0.110079  0.129269  0  0.985077  0
H  H21  1  0.27669830  0.19059574  0.96443108  1  0.053162  0  0.102199  0.102871  0  0.995219  0
H  H22  1  0.29973927  0.24546521  0.81742571  1  0.085453  0  0.107044  0.115704  0  0.991765  0
H  H23  1  0.41986550  0.34216033  0.15036086  1  0.09802  0  0.10712  0.113695  0  1.03774  0
C  C24  1  0.51810831  0.16414819  0.51651088  1  1.599174  0  0.234121  0.655579  0  4.165022  0
C  C25  1  0.65662198  0.54490605  0.92504613  1  0.495094  0  0.079718  0.210829  0  4.051567  0
C  C26  1  0.71320192  0.60485392  0.96472350  1  -0.034444  0  -0.101284  -0.254949  0  3.995075  0
C  C27  1  0.47787861  0.84469934  0.47930702  1  1.53623  0  0.222885  0.650249  0  4.176585  0
C  C28  1  0.67245079  0.60180966  0.04406092  1  -0.039991  0  -0.007705  0.128095  0  4.067347  0
C  C29  1  0.57210220  0.52898086  0.08517581  1  0.043821  0  -0.013688  -0.089006  0  3.92653  0
C  C30  1  0.73376983  0.66692020  0.08159865  1  -0.009739  0  -0.105229  -0.269133  0  3.979851  0
C  C31  1  0.69935672  0.66032342  0.15968767  1  0.538191  0  0.081009  0.252063  0  4.088174  0
C  C32  1  0.53404152  0.53237135  0.16426439  1  0.458048  0  0.088526  0.206417  0  3.987028  0
C  C33  1  0.47250120  0.98482026  0.47038188  1  0.057147  0  -0.093054  -0.220182  0  3.926381  0
C  C34  1  0.52179761  0.02493379  0.52122788  1  -0.093059  0  -0.060474  -0.131989  0  3.865041  0
C  C35  1  0.34963680  0.29142442  0.84741654  1  0.037024  0  -0.088521  -0.097341  0  4.01138  0
C  C36  1  0.03555742  0.54371929  0.47160881  1  -0.046989  0  -0.093413  -0.222757  0  3.927529  0
C  C37  1  0.96228892  0.46134427  0.52242396  1  -0.002012  0  -0.061995  -0.134146  0  3.872589  0
C  C38  1  0.82584711  0.46834809  0.51755565  1  1.59439  0  0.233105  0.653778  0  4.166564  0
C  C39  1  0.17000709  0.53355884  0.48082142  1  1.546699  0  0.223617  0.652546  0  4.174946  0
C  C40  1  0.56587088  0.57468473  0.28784630  1  1.623621  0  0.237066  0.654547  0  4.163328  0
C  C41  1  0.43923993  0.42406113  0.71482959  1  1.473553  0  0.225547  0.603352  0  4.16925  0
C  C42  1  0.42720957  0.38580606  0.80238652  1  -0.043519  0  -0.026106  -0.04904  0  4.008352  0
C  C43  1  0.59831346  0.59286414  0.20105095  1  0.012426  0  -0.027423  -0.232715  0  3.967986  0
C  C44  1  0.33802494  0.26109676  0.92830173  1  -0.060935  0  -0.093022  -0.141761  0  4.01253  0
C  C45  1  0.31458991  0.55345116  0.19374232  1  0.380314  0  -0.136856  -0.172424  0  3.899019  0
C  C46  1  0.49388640  0.44429132  0.83910160  1  -0.006139  0  -0.080658  -0.136393  0  3.928202  0
C  C47  1  0.71615844  0.84839648  0.19488856  1  0.365649  0  -0.137148  -0.168157  0  3.924196  0
C  C48  1  0.78865177  0.44369985  0.83768314  1  0.372436  0  -0.135957  -0.169434  0  3.92099  0
C  C49  1  0.48628800  0.41301715  0.92201722  1  -0.01305  0  -0.003364  0.042208  0  3.934693  0
C  C50  1  0.40308335  0.32148830  0.96692043  1  0.002099  0  -0.006696  0.084257  0  4.019796  0
C  C51  1  0.55346390  0.47288572  0.96268237  1  0.020971  0  -0.006603  -0.066961  0  3.910531  0
C  C52  1  0.51904398  0.45708008  0.04484902  1  -0.033604  0  -0.002003  0.06105  0  3.955213  0
C  C53  1  0.43743357  0.36239553  0.08687826  1  -0.019764  0  -0.0955  -0.13443  0  4.015738  0
C  C54  1  0.38528543  0.29451896  0.05008950  1  -0.058983  0  -0.093546  -0.137889  0  4.034673  0
O  O55  1  0.49599736  0.50383831  0.49934293  1  -1.233789  0  -0.570914  -1.031585  0  2.53623  0
O  O56  1  0.63269215  0.48081724  0.33103412  1  -1.1589  0  -0.306297  -0.532202  0  2.324746  0
O  O57  1  0.37717676  0.36841773  0.68250571  1  -1.159359  0  -0.317871  -0.547422  0  2.330473  0
O  O58  1  0.47741032  0.65190675  0.31025973  1  -1.17  0  -0.306924  -0.546985  0  2.307148  0
O  O59  1  0.51134177  0.50974412  0.67824007  1  -1.184108  0  -0.317377  -0.54642  0  2.362525  0
O  O60  1  0.43312206  0.47415181  0.21005888  1  -1.06212  0  -0.208465  -0.197739  0  2.525072  0
O  O61  1  0.76388012  0.71565227  0.19879579  1  -1.083771  0  -0.219082  -0.208959  0  2.496761  0
O  O62  1  0.70503016  0.55567185  0.84767353  1  -1.06936  0  -0.211344  -0.196802  0  2.529011  0
O  O63  1  0.75320138  0.52757310  0.56127457  1  -1.164834  0  -0.310026  -0.54066  0  2.297926  0
O  O64  1  0.21315799  0.44165395  0.53793991  1  -1.182093  0  -0.319654  -0.557816  0  2.334757  0
O  O65  1  0.60194162  0.22452329  0.46871052  1  -1.15771  0  -0.308255  -0.534402  0  2.28946  0
O  O66  1  0.42185582  0.81598787  0.43050595  1  -1.158115  0  -0.318831  -0.552375  0  2.283873  0
O  O67  1  0.43282185  0.20756525  0.56189663  1  -1.168051  0  -0.310224  -0.541076  0  2.292638  0
O  O68  1  0.53774538  0.76502364  0.53431894  1  -1.181863  0  -0.318806  -0.554663  0  2.338155  0
O  O69  1  0.79576951  0.41311328  0.47143671  1  -1.156688  0  -0.307391  -0.533739  0  2.288494  0
O  O70  1  0.23097685  0.61883522  0.43005557  1  -1.169066  0  -0.319027  -0.552233  0  2.285563  0
