# generated using pymatgen
data_ZnH10C12N3O5
_symmetry_space_group_name_H-M   'P 1'
_cell_length_a   6.31805492
_cell_length_b   12.97728894
_cell_length_c   17.17063625
_cell_angle_alpha   69.99935700
_cell_angle_beta   80.70348950
_cell_angle_gamma   76.32418738
_symmetry_Int_Tables_number   1
_chemical_formula_structural   ZnH10C12N3O5
_chemical_formula_sum   'Zn4 H40 C48 N12 O20'
_cell_volume   1280.39844365
_cell_formula_units_Z   4
loop_
 _symmetry_equiv_pos_site_id
 _symmetry_equiv_pos_as_xyz
  1  'x, y, z'
loop_
 _atom_site_type_symbol
 _atom_site_label
 _atom_site_symmetry_multiplicity
 _atom_site_fract_x
 _atom_site_fract_y
 _atom_site_fract_z
 _atom_site_occupancy
 _atom_site_hle17_bader_spin_density
 _atom_site_hle17_ddec_charge
 _atom_site_hle17_ddec_spin_density
 _atom_site_hle17_ddec_sum_bond_order
 _atom_site_hle17_magmom
 _atom_site_hse06_10hf_bader_spin_density
 _atom_site_hse06_10hf_ddec_charge
 _atom_site_hse06_10hf_ddec_spin_density
 _atom_site_hse06_10hf_ddec_sum_bond_order
 _atom_site_hse06_10hf_magmom
 _atom_site_hse06_bader_spin_density
 _atom_site_hse06_ddec_charge
 _atom_site_hse06_ddec_spin_density
 _atom_site_hse06_ddec_sum_bond_order
 _atom_site_hse06_magmom
 _atom_site_pbe_bader_charge
 _atom_site_pbe_bader_spin_density
 _atom_site_pbe_cm5_charge
 _atom_site_pbe_ddec_charge
 _atom_site_pbe_ddec_spin_density
 _atom_site_pbe_ddec_sum_bond_order
 _atom_site_pbe_magmom
Zn  Zn0  1  0.81778150  0.95961582  0.21832495  1  0  1.09948  0  1.736368  0  0  0.915759  0  2.208361  0  0  0.96467  0  2.147658  0  1.28121  0  0.698681  0.881393  0  2.250341  0
Zn  Zn1  1  0.99066084  0.54059329  0.28343769  1  0  1.098991  0  1.739045  0  0  0.91487  0  2.210686  0  0  0.963764  0  2.150022  0  1.279468  0  0.698573  0.880515  0  2.252641  0
Zn  Zn2  1  0.18221976  0.04038590  0.78167367  1  0  1.099514  0  1.736321  0  0  0.915801  0  2.208318  0  0  0.96471  0  2.147617  0  1.281198  0  0.698714  0.881435  0  2.250297  0
Zn  Zn3  1  0.00933432  0.45940509  0.71656425  1  0  1.099002  0  1.739066  0  0  0.914899  0  2.210708  0  0  0.963787  0  2.150042  0  1.279469  0  0.698578  0.880543  0  2.252662  0
H  H4  1  0.17751161  0.02517053  0.19429359  1  0  0.364773  0  0.967222  0  0  0.317627  0  1.061598  0  0  0.329609  0  1.044812  0  0.63193  0  0.279491  0.309286  0  1.073246  0
H  H5  1  0.39168343  0.47395488  0.30685076  1  0  0.363914  0  0.96902  0  0  0.317665  0  1.061959  0  0  0.329534  0  1.045324  0  0.623954  0  0.279529  0.309396  0  1.073517  0
H  H6  1  0.82249170  0.97483035  0.80570350  1  0  0.364823  0  0.967132  0  0  0.31768  0  1.061508  0  0  0.329668  0  1.044715  0  0.631943  0  0.279496  0.309339  0  1.073157  0
H  H7  1  0.60831733  0.52604600  0.69315050  1  0  0.363906  0  0.96902  0  0  0.317647  0  1.061979  0  0  0.329516  0  1.045344  0  0.623117  0  0.279518  0.309378  0  1.073535  0
H  H8  1  0.24754424  0.89382693  0.22692101  1  0  0.450807  0  0.808941  0  0  0.428917  0  0.863774  0  0  0.438873  0  0.849324  0  0.65173  0  0.315281  0.421763  0  0.874159  0
H  H9  1  0.36695085  0.60474834  0.27505123  1  0  0.450659  0  0.817927  0  0  0.42789  0  0.869501  0  0  0.438118  0  0.854648  0  0.660394  0  0.311339  0.42053  0  0.880191  0
H  H10  1  0.75245353  0.10617395  0.77308001  1  0  0.450838  0  0.808993  0  0  0.428951  0  0.863747  0  0  0.438907  0  0.849295  0  0.651711  0  0.315278  0.421797  0  0.874131  0
H  H11  1  0.63304269  0.39525338  0.72494865  1  0  0.450649  0  0.817999  0  0  0.427892  0  0.869502  0  0  0.438119  0  0.85465  0  0.660424  0  0.31135  0.420533  0  0.88019  0
H  H12  1  0.50507145  0.90050775  0.53921121  1  0  0.109916  0  0.947846  0  0  0.114253  0  1.015104  0  0  0.118192  0  1.011442  0  0.142886  0  0.123634  0.111388  0  1.017797  0
H  H13  1  0.94502653  0.60036693  0.95990784  1  0  0.109373  0  0.949288  0  0  0.114615  0  1.015681  0  0  0.1186  0  1.011949  0  0.147251  0  0.12346  0.111676  0  1.01852  0
H  H14  1  0.49494002  0.09949313  0.46078903  1  0  0.110014  0  0.947735  0  0  0.11431  0  1.015019  0  0  0.118252  0  1.01136  0  0.142976  0  0.123598  0.111437  0  1.017712  0
H  H15  1  0.05496835  0.39962977  0.04009380  1  0  0.109375  0  0.949251  0  0  0.114625  0  1.015635  0  0  0.11861  0  1.011902  0  0.146704  0  0.123472  0.111686  0  1.018477  0
H  H16  1  0.62438804  0.51436921  0.55021018  1  0  0.100018  0  0.940826  0  0  0.108423  0  1.004986  0  0  0.111586  0  1.003253  0  0.140179  0  0.123034  0.106015  0  1.006481  0
H  H17  1  0.68873299  0.98645948  0.94793260  1  0  0.101221  0  0.946482  0  0  0.109376  0  1.010619  0  0  0.112739  0  1.008621  0  0.136863  0  0.122252  0.106811  0  1.012333  0
H  H18  1  0.37561245  0.48563418  0.44979304  1  0  0.099986  0  0.940798  0  0  0.108397  0  1.004947  0  0  0.11156  0  1.003213  0  0.140101  0  0.122986  0.105993  0  1.006445  0
H  H19  1  0.31127960  0.01353973  0.05206433  1  0  0.101183  0  0.946487  0  0  0.109327  0  1.010639  0  0  0.11269  0  1.008643  0  0.136814  0  0.122212  0.106763  0  1.012353  0
H  H20  1  0.61796369  0.16030778  0.27930138  1  0  0.085007  0  0.978776  0  0  0.084551  0  1.059329  0  0  0.08805  0  1.055411  0  0.197622  0  0.114  0.081972  0  1.062168  0
H  H21  1  0.05546184  0.33970228  0.22210565  1  0  0.086609  0  0.978004  0  0  0.085791  0  1.05867  0  0  0.089346  0  1.054693  0  0.155301  0  0.114564  0.083201  0  1.061476  0
H  H22  1  0.38203757  0.83969394  0.72069725  1  0  0.085018  0  0.97878  0  0  0.084564  0  1.059329  0  0  0.088065  0  1.055405  0  0.19784  0  0.114013  0.081987  0  1.062163  0
H  H23  1  0.94452489  0.66029860  0.77789510  1  0  0.086601  0  0.978082  0  0  0.08577  0  1.058741  0  0  0.089326  0  1.054761  0  0.155325  0  0.114579  0.08318  0  1.061548  0
H  H24  1  0.51060319  0.36479087  0.21236527  1  0  0.118716  0  0.941325  0  0  0.130616  0  0.997676  0  0  0.133413  0  0.99735  0  0.083662  0  0.112933  0.128607  0  0.998073  0
H  H25  1  0.08675111  0.13514393  0.28846924  1  0  0.119167  0  0.941116  0  0  0.131109  0  0.997273  0  0  0.133902  0  0.996943  0  0.089986  0  0.113009  0.1291  0  0.997659  0
H  H26  1  0.48938618  0.63521001  0.78763444  1  0  0.118699  0  0.941304  0  0  0.130598  0  0.997673  0  0  0.133397  0  0.997345  0  0.083639  0  0.112907  0.128589  0  0.99807  0
H  H27  1  0.91324213  0.86485528  0.71152926  1  0  0.119116  0  0.941074  0  0  0.131059  0  0.997248  0  0  0.133857  0  0.996922  0  0.090036  0  0.112994  0.129048  0  0.997638  0
H  H28  1  0.64342657  0.30698719  0.97419171  1  0  0.116096  0  0.939784  0  0  0.130409  0  0.99167  0  0  0.133172  0  0.991772  0  0.072749  0  0.112998  0.128354  0  0.991852  0
H  H29  1  0.92608091  0.19295096  0.52641813  1  0  0.115316  0  0.940499  0  0  0.129101  0  0.993212  0  0  0.131898  0  0.993333  0  0.130706  0  0.112421  0.12706  0  0.993334  0
H  H30  1  0.35655827  0.69301620  0.02580774  1  0  0.116034  0  0.939871  0  0  0.130347  0  0.991752  0  0  0.133117  0  0.991847  0  0.072764  0  0.112976  0.128292  0  0.991932  0
H  H31  1  0.07394064  0.80704073  0.47358419  1  0  0.115216  0  0.94049  0  0  0.129  0  0.993229  0  0  0.131795  0  0.993348  0  0.131034  0  0.112358  0.126959  0  0.993349  0
H  H32  1  0.75711456  0.10587210  0.04997910  1  0  0.079141  0  0.940248  0  0  0.088782  0  1.003851  0  0  0.09103  0  1.00226  0  0.110765  0  0.115934  0.087074  0  1.005085  0
H  H33  1  0.91235194  0.39420736  0.45135346  1  0  0.077989  0  0.944975  0  0  0.088216  0  1.008091  0  0  0.090499  0  1.00644  0  0.092696  0  0.115399  0.086474  0  1.00937  0
H  H34  1  0.24287826  0.89413213  0.95001833  1  0  0.07913  0  0.940253  0  0  0.088764  0  1.003846  0  0  0.091012  0  1.002256  0  0.110773  0  0.115929  0.087059  0  1.005077  0
H  H35  1  0.08766699  0.60578516  0.54865097  1  0  0.078117  0  0.944843  0  0  0.08828  0  1.007996  0  0  0.090565  0  1.006344  0  0.093003  0  0.115411  0.086533  0  1.009272  0
H  H36  1  0.32924465  0.50343491  0.07477764  1  0  0.096348  0  0.947113  0  0  0.113543  0  1.008201  0  0  0.114428  0  1.008457  0  0.081819  0  0.099872  0.112923  0  1.00801  0
H  H37  1  0.90576963  0.99695229  0.42354072  1  0  0.094542  0  0.945889  0  0  0.113184  0  1.00576  0  0  0.11389  0  1.006195  0  0.057679  0  0.09989  0.112672  0  1.00548  0
H  H38  1  0.67074287  0.49656931  0.92522186  1  0  0.096356  0  0.947066  0  0  0.113535  0  1.008135  0  0  0.11442  0  1.008391  0  0.081631  0  0.099835  0.112917  0  1.007949  0
H  H39  1  0.09424346  0.00304107  0.57645932  1  0  0.09453  0  0.945865  0  0  0.113157  0  1.005718  0  0  0.113866  0  1.006143  0  0.057618  0  0.099864  0.112644  0  1.005435  0
H  H40  1  0.60087986  0.51951569  0.06863910  1  0  0.090391  0  0.945507  0  0  0.107833  0  1.007117  0  0  0.108404  0  1.007599  0  0.066007  0  0.098841  0.107389  0  1.006828  0
H  H41  1  0.18594601  0.98050026  0.43301974  1  0  0.093187  0  0.94587  0  0  0.109841  0  1.009137  0  0  0.110573  0  1.009445  0  0.083247  0  0.099332  0.109292  0  1.008983  0
H  H42  1  0.39910738  0.48048686  0.93136010  1  0  0.090427  0  0.945535  0  0  0.107839  0  1.007144  0  0  0.10841  0  1.007627  0  0.065729  0  0.098853  0.107413  0  1.00684  0
H  H43  1  0.81406497  0.01949560  0.56698087  1  0  0.093214  0  0.9459  0  0  0.109829  0  1.009163  0  0  0.110559  0  1.009477  0  0.083351  0  0.099345  0.109265  0  1.009021  0
C  C44  1  0.62320628  0.88785517  0.38169524  1  0  0.636372  0  3.949278  0  0  0.585604  0  4.246128  0  0  0.620024  0  4.238  0  1.608451  0  0.208636  0.562339  0  4.25085  0
C  C45  1  0.89453203  0.61326533  0.11799562  1  0  0.635121  0  3.951157  0  0  0.584014  0  4.247423  0  0  0.618429  0  4.239463  0  1.593392  0  0.207803  0.56078  0  4.252  0
C  C46  1  0.37679921  0.11214571  0.61830452  1  0  0.636538  0  3.949025  0  0  0.585761  0  4.245882  0  0  0.620179  0  4.237756  0  1.608498  0  0.208673  0.562497  0  4.250605  0
C  C47  1  0.10546012  0.38673220  0.88200500  1  0  0.635199  0  3.951139  0  0  0.584093  0  4.247409  0  0  0.618507  0  4.23945  0  1.593185  0  0.207799  0.560858  0  4.251987  0
C  C48  1  0.58446223  0.79405704  0.46019381  1  0  -0.077782  0  3.689484  0  0  -0.067194  0  3.925817  0  0  -0.073011  0  3.943915  0  0.035368  0  0.006572  -0.063709  0  3.914172  0
C  C49  1  0.84070269  0.70684858  0.03870247  1  0  -0.080162  0  3.691167  0  0  -0.0696  0  3.928596  0  0  -0.075488  0  3.946706  0  -0.000873  0  0.00524  -0.066042  0  3.9169  0
C  C50  1  0.41554627  0.20594468  0.53980727  1  0  -0.077597  0  3.689603  0  0  -0.067028  0  3.925865  0  0  -0.07285  0  3.94397  0  0.035339  0  0.00668  -0.063538  0  3.914214  0
C  C51  1  0.15929455  0.29314980  0.96129902  1  0  -0.080228  0  3.691123  0  0  -0.069648  0  3.928553  0  0  -0.075537  0  3.946666  0  -0.000751  0  0.005246  -0.066091  0  3.916857  0
C  C52  1  0.53122995  0.81555772  0.53647370  1  0  0.069587  0  3.67701  0  0  0.037729  0  3.943004  0  0  0.041764  0  3.95816  0  0.514621  0  0.057246  0.034737  0  3.933675  0
C  C53  1  0.88423546  0.68537131  0.96232163  1  0  0.071773  0  3.678658  0  0  0.038904  0  3.945065  0  0  0.042852  0  3.960471  0  0.476044  0  0.057592  0.035939  0  3.935649  0
C  C54  1  0.46877823  0.18444483  0.46352719  1  0  0.069307  0  3.677338  0  0  0.037488  0  3.943309  0  0  0.041546  0  3.958418  0  0.514317  0  0.057183  0.03451  0  3.933959  0
C  C55  1  0.11576209  0.31462623  0.03768005  1  0  0.071775  0  3.678723  0  0  0.038884  0  3.945154  0  0  0.042834  0  3.960557  0  0.476619  0  0.057566  0.035917  0  3.935738  0
C  C56  1  0.59645822  0.60388878  0.54117794  1  0  0.04875  0  3.67413  0  0  0.006908  0  3.938041  0  0  0.008868  0  3.953712  0  0.449077  0  0.052094  0.005401  0  3.92798  0
C  C57  1  0.74232998  0.89699593  0.95717251  1  0  0.051857  0  3.67208  0  0  0.009681  0  3.934751  0  0  0.011602  0  3.950371  0  0.452772  0  0.052872  0.00823  0  3.924751  0
C  C58  1  0.40354608  0.39611461  0.45882309  1  0  0.048809  0  3.673951  0  0  0.006959  0  3.937841  0  0  0.00892  0  3.953511  0  0.449046  0  0.052172  0.005446  0  3.927789  0
C  C59  1  0.25767936  0.10300244  0.04282496  1  0  0.0519  0  3.672093  0  0  0.009762  0  3.93476  0  0  0.011671  0  3.950376  0  0.452772  0  0.052926  0.008309  0  3.92476  0
C  C60  1  0.61582569  0.68321739  0.46213282  1  0  -0.026691  0  3.660329  0  0  -0.017028  0  3.900239  0  0  -0.017736  0  3.915127  0  -0.037373  0  0.021646  -0.016926  0  3.890696  0
C  C61  1  0.76253854  0.81757284  0.03650265  1  0  -0.025859  0  3.657804  0  0  -0.016584  0  3.897681  0  0  -0.01722  0  3.912481  0  0.033383  0  0.021846  -0.016547  0  3.888234  0
C  C62  1  0.38417864  0.31678349  0.53786810  1  0  -0.026851  0  3.660397  0  0  -0.017108  0  3.900197  0  0  -0.017818  0  3.915087  0  -0.037429  0  0.021585  -0.017013  0  3.890658  0
C  C63  1  0.23746601  0.18242721  0.96349534  1  0  -0.025772  0  3.657796  0  0  -0.016525  0  3.897657  0  0  -0.017159  0  3.91246  0  0.033335  0  0.021843  -0.01649  0  3.888214  0
C  C64  1  0.67064587  0.64175704  0.38780789  1  0  0.67751  0  3.942107  0  0  0.620831  0  4.253121  0  0  0.656234  0  4.242359  0  1.661  0  0.210984  0.596541  0  4.259699  0
C  C65  1  0.70181757  0.85925309  0.11070493  1  0  0.676959  0  3.937927  0  0  0.621289  0  4.24754  0  0  0.656761  0  4.236642  0  1.661185  0  0.210706  0.596962  0  4.254177  0
C  C66  1  0.32935255  0.35824217  0.61219351  1  0  0.677569  0  3.942081  0  0  0.620869  0  4.253095  0  0  0.656272  0  4.24233  0  1.661107  0  0.211023  0.596582  0  4.25967  0
C  C67  1  0.29818602  0.14074946  0.88929246  1  0  0.676735  0  3.938448  0  0  0.621117  0  4.247984  0  0  0.656583  0  4.237103  0  1.661181  0  0.210667  0.59679  0  4.254619  0
C  C68  1  0.62517557  0.19635491  0.21178720  1  0  0.141531  0  3.694078  0  0  0.104627  0  3.957705  0  0  0.113263  0  3.974376  0  0.427117  0  0.048943  0.099194  0  3.946275  0
C  C69  1  0.03078442  0.30366351  0.28945632  1  0  0.140716  0  3.692853  0  0  0.10402  0  3.956016  0  0  0.112599  0  3.972666  0  0.412444  0  0.048707  0.098623  0  3.944615  0
C  C70  1  0.37481938  0.80364764  0.78821074  1  0  0.141463  0  3.694044  0  0  0.104599  0  3.957646  0  0  0.113232  0  3.974325  0  0.426776  0  0.048904  0.099167  0  3.946215  0
C  C71  1  0.96921221  0.69633403  0.71054466  1  0  0.140701  0  3.693009  0  0  0.104046  0  3.956158  0  0  0.112622  0  3.97281  0  0.412367  0  0.04872  0.098648  0  3.944758  0
C  C72  1  0.56294989  0.31051908  0.17368934  1  0  -0.151183  0  3.658848  0  0  -0.1706  0  3.909516  0  0  -0.179793  0  3.93111  0  -0.083319  0  -0.076361  -0.16479  0  3.895095  0
C  C73  1  0.04531378  0.18948847  0.32719464  1  0  -0.151744  0  3.658077  0  0  -0.170555  0  3.907363  0  0  -0.179752  0  3.929172  0  0.055313  0  -0.075775  -0.164728  0  3.892793  0
C  C74  1  0.43704066  0.68948264  0.82631029  1  0  -0.151125  0  3.658893  0  0  -0.170574  0  3.909596  0  0  -0.179768  0  3.931187  0  -0.083155  0  -0.076331  -0.164764  0  3.895175  0
C  C75  1  0.95468608  0.81050907  0.67280473  1  0  -0.151694  0  3.658082  0  0  -0.170515  0  3.90733  0  0  -0.179722  0  3.929152  0  0.055335  0  -0.075805  -0.164689  0  3.892755  0
C  C76  1  0.56679957  0.35533907  0.08685180  1  0  0.178059  0  3.670273  0  0  0.192094  0  3.908067  0  0  0.198813  0  3.928951  0  0.063648  0  0.024996  0.187881  0  3.893659  0
C  C77  1  0.00768134  0.14471865  0.41375546  1  0  0.178175  0  3.670312  0  0  0.192982  0  3.907911  0  0  0.199519  0  3.928949  0  -0.00132  0  0.024074  0.188878  0  3.89345  0
C  C78  1  0.43318767  0.64466349  0.91314740  1  0  0.178135  0  3.670443  0  0  0.192141  0  3.908242  0  0  0.19886  0  3.929128  0  0.063923  0  0.025043  0.187929  0  3.893841  0
C  C79  1  0.99232184  0.85527805  0.58624435  1  0  0.178116  0  3.670487  0  0  0.19292  0  3.908042  0  0  0.199456  0  3.929078  0  -0.001326  0  0.0241  0.188819  0  3.893572  0
C  C80  1  0.63657338  0.27947712  0.04182535  1  0  -0.185964  0  3.720535  0  0  -0.20451  0  3.9709  0  0  -0.214774  0  3.995545  0  -0.051576  0  -0.089387  -0.197874  0  3.954561  0
C  C81  1  0.95763137  0.22052708  0.45895636  1  0  -0.186541  0  3.719917  0  0  -0.20466  0  3.970255  0  0  -0.214974  0  3.99501  0  -0.055686  0  -0.089879  -0.198021  0  3.953837  0
C  C82  1  0.36341322  0.72052711  0.95817345  1  0  -0.185936  0  3.720607  0  0  -0.204484  0  3.970977  0  0  -0.214751  0  3.995617  0  -0.05151  0  -0.089333  -0.197847  0  3.954638  0
C  C83  1  0.04238448  0.77946627  0.54104578  1  0  -0.186408  0  3.719868  0  0  -0.204569  0  3.970223  0  0  -0.214875  0  3.994968  0  -0.056258  0  -0.089887  -0.19793  0  3.9538  0
C  C84  1  0.69920921  0.16623104  0.08366747  1  0  0.129365  0  3.730602  0  0  0.092966  0  3.991059  0  0  0.100623  0  4.01156  0  0.449516  0  0.038193  0.088094  0  3.977283  0
C  C85  1  0.94791883  0.33381413  0.41751263  1  0  0.130953  0  3.733023  0  0  0.093667  0  3.99357  0  0  0.101282  0  4.014139  0  0.450908  0  0.038356  0.088831  0  3.979739  0
C  C86  1  0.30078543  0.83377235  0.91633028  1  0  0.12939  0  3.730657  0  0  0.093025  0  3.991107  0  0  0.100682  0  4.011611  0  0.44947  0  0.038184  0.088152  0  3.977332  0
C  C87  1  0.05209223  0.66618090  0.58249003  1  0  0.130821  0  3.732793  0  0  0.093632  0  3.993299  0  0  0.101247  0  4.013861  0  0.45083  0  0.038419  0.088807  0  3.979458  0
C  C88  1  0.49618176  0.47941743  0.04731557  1  0  -0.165515  0  3.693958  0  0  -0.208191  0  3.940967  0  0  -0.209833  0  3.952833  0  -0.056084  0  -0.159189  -0.206802  0  3.932391  0
C  C89  1  0.02176438  0.02065367  0.45281028  1  0  -0.167361  0  3.694303  0  0  -0.211544  0  3.944101  0  0  -0.213062  0  3.9559  0  -0.000816  0  -0.160131  -0.210246  0  3.935576  0
C  C90  1  0.50380459  0.52058596  0.95268401  1  0  -0.165676  0  3.694132  0  0  -0.208197  0  3.941012  0  0  -0.209839  0  3.952876  0  0.000192  0  -0.159201  -0.206833  0  3.932435  0
C  C91  1  0.97824502  0.97934303  0.54718816  1  0  -0.167384  0  3.694425  0  0  -0.211408  0  3.94408  0  0  -0.212912  0  3.95585  0  -0.03412  0  -0.160133  -0.210105  0  3.935571  0
N  N92  1  0.69473143  0.12445128  0.16742088  1  0  -0.372584  0  3.33301  0  0  -0.287472  0  3.623803  0  0  -0.309049  0  3.637552  0  -1.226885  0  -0.340089  -0.273007  0  3.614338  0
N  N93  1  0.98372000  0.37559974  0.33398505  1  0  -0.372606  0  3.334119  0  0  -0.287365  0  3.624479  0  0  -0.308875  0  3.638303  0  -1.28954  0  -0.340279  -0.272943  0  3.614964  0
N  N94  1  0.30526352  0.87555127  0.83257706  1  0  -0.37262  0  3.333035  0  0  -0.28756  0  3.62387  0  0  -0.309141  0  3.637624  0  -1.227008  0  -0.340123  -0.273094  0  3.614406  0
N  N95  1  0.01627821  0.62439696  0.66601810  1  0  -0.372615  0  3.334139  0  0  -0.287409  0  3.624475  0  0  -0.308915  0  3.638291  0  -1.289636  0  -0.34032  -0.27299  0  3.614962  0
N  N96  1  0.51528192  0.73646072  0.61029559  1  0  -0.148619  0  3.001968  0  0  -0.130724  0  3.28114  0  0  -0.134812  0  3.296448  0  -0.624135  0  -0.184601  -0.128028  0  3.271116  0
N  N97  1  0.86134370  0.76445074  0.88824931  1  0  -0.150278  0  3.000295  0  0  -0.133002  0  3.27951  0  0  -0.137122  0  3.294957  0  -0.61355  0  -0.185327  -0.13024  0  3.269364  0
N  N98  1  0.48472654  0.26354350  0.38970561  1  0  -0.148707  0  3.002295  0  0  -0.130797  0  3.281447  0  0  -0.134893  0  3.296763  0  -0.624288  0  -0.18462  -0.128099  0  3.271416  0
N  N99  1  0.13865946  0.23554512  0.11174942  1  0  -0.1503  0  3.000562  0  0  -0.133007  0  3.279816  0  0  -0.13714  0  3.295259  0  -0.613871  0  -0.185345  -0.130246  0  3.269668  0
N  N100  1  0.55003111  0.63067642  0.61129906  1  0  -0.16896  0  3.209877  0  0  -0.112765  0  3.473295  0  0  -0.119269  0  3.4877  0  -0.70715  0  -0.181838  -0.108186  0  3.463817  0
N  N101  1  0.79171308  0.87024926  0.88706319  1  0  -0.171259  0  3.21063  0  0  -0.112906  0  3.471833  0  0  -0.119598  0  3.486309  0  -0.709129  0  -0.182021  -0.10825  0  3.462333  0
N  N102  1  0.44997475  0.36932530  0.38870306  1  0  -0.168799  0  3.209954  0  0  -0.112649  0  3.47341  0  0  -0.119154  0  3.487819  0  -0.706586  0  -0.181785  -0.108071  0  3.463934  0
N  N103  1  0.20829423  0.12974660  0.11293463  1  0  -0.171203  0  3.210833  0  0  -0.11289  0  3.472059  0  0  -0.119551  0  3.486514  0  -0.708826  0  -0.182019  -0.108232  0  3.462557  0
O  O104  1  0.71649664  0.85400460  0.31981861  1  0  -0.621993  0  2.082575  0  0  -0.543523  0  2.352101  0  0  -0.57334  0  2.335508  0  -1.145019  0  -0.312847  -0.522832  0  2.362868  0
O  O105  1  0.87773598  0.64661171  0.18177197  1  0  -0.620497  0  2.088938  0  0  -0.540431  0  2.355801  0  0  -0.570412  0  2.339746  0  -1.138856  0  -0.311409  -0.519641  0  2.366192  0
O  O106  1  0.28351185  0.14599628  0.68018139  1  0  -0.62204  0  2.082462  0  0  -0.543584  0  2.352027  0  0  -0.573393  0  2.335417  0  -1.145124  0  -0.312867  -0.522894  0  2.362794  0
O  O107  1  0.12226423  0.35338583  0.81822868  1  0  -0.62056  0  2.089023  0  0  -0.540502  0  2.355904  0  0  -0.570482  0  2.339849  0  -1.138906  0  -0.311405  -0.519711  0  2.366295  0
O  O108  1  0.13289036  0.95437150  0.23800940  1  0  -0.813943  0  1.893367  0  0  -0.744206  0  2.115394  0  0  -0.766519  0  2.078001  0  -1.262444  0  -0.569042  -0.728415  0  2.141357  0
O  O109  1  0.31738106  0.54525648  0.26358837  1  0  -0.815087  0  1.89809  0  0  -0.745138  0  2.115423  0  0  -0.767555  0  2.077846  0  -1.262333  0  -0.569778  -0.729258  0  2.141516  0
O  O110  1  0.86710943  0.04563105  0.76199019  1  0  -0.81401  0  1.89334  0  0  -0.744284  0  2.11533  0  0  -0.766599  0  2.07793  0  -1.262433  0  -0.569054  -0.728494  0  2.141294  0
O  O111  1  0.68261701  0.45474273  0.73641176  1  0  -0.815054  0  1.898162  0  0  -0.745096  0  2.115458  0  0  -0.767513  0  2.077883  0  -1.261545  0  -0.56977  -0.729217  0  2.14155  0
O  O112  1  0.57294489  0.98677387  0.38208658  1  0  -0.594255  0  1.938036  0  0  -0.54667  0  2.160798  0  0  -0.56931  0  2.151642  0  -1.170223  0  -0.304117  -0.530805  0  2.166555  0
O  O113  1  0.95561991  0.51477390  0.11695324  1  0  -0.594814  0  1.937584  0  0  -0.547196  0  2.160955  0  0  -0.569839  0  2.151716  0  -1.169924  0  -0.30429  -0.531357  0  2.166787  0
O  O114  1  0.42705945  0.01322701  0.61791433  1  0  -0.594365  0  1.938047  0  0  -0.546775  0  2.160802  0  0  -0.569419  0  2.151645  0  -1.17017  0  -0.304137  -0.530915  0  2.166563  0
O  O115  1  0.04436360  0.48522363  0.88304793  1  0  -0.594827  0  1.937517  0  0  -0.547219  0  2.160906  0  0  -0.56986  0  2.151664  0  -1.169704  0  -0.304285  -0.531379  0  2.166741  0
O  O116  1  0.51720350  0.64302715  0.34992271  1  0  -0.608019  0  1.909724  0  0  -0.563727  0  2.124629  0  0  -0.58861  0  2.114209  0  -1.165472  0  -0.309757  -0.545604  0  2.131057  0
O  O117  1  0.51230256  0.86049226  0.14508094  1  0  -0.605987  0  1.900686  0  0  -0.563723  0  2.116519  0  0  -0.588391  0  2.106018  0  -1.170126  0  -0.311339  -0.545727  0  2.122988  0
O  O118  1  0.48279008  0.35697624  0.65007933  1  0  -0.607998  0  1.909708  0  0  -0.563735  0  2.124649  0  0  -0.588617  0  2.114229  0  -1.165544  0  -0.309776  -0.54561  0  2.131069  0
O  O119  1  0.48770045  0.13951029  0.85491703  1  0  -0.605955  0  1.900927  0  0  -0.563713  0  2.116732  0  0  -0.588378  0  2.106233  0  -1.170223  0  -0.311351  -0.545717  0  2.123201  0
O  O120  1  0.87513952  0.59900401  0.37751756  1  0  -0.653839  0  2.022005  0  0  -0.582843  0  2.293097  0  0  -0.612856  0  2.275657  0  -1.170051  0  -0.330804  -0.561395  0  2.304257  0
O  O121  1  0.85421661  0.90013232  0.12442887  1  0  -0.656798  0  2.020907  0  0  -0.585539  0  2.29127  0  0  -0.61575  0  2.273967  0  -1.161764  0  -0.33269  -0.563955  0  2.302355  0
O  O122  1  0.12485714  0.40099436  0.62248450  1  0  -0.653875  0  2.021946  0  0  -0.582888  0  2.293059  0  0  -0.612907  0  2.275632  0  -1.170077  0  -0.330847  -0.561439  0  2.304218  0
O  O123  1  0.14578848  0.09987023  0.87556865  1  0  -0.656659  0  2.021088  0  0  -0.585394  0  2.291388  0  0  -0.615597  0  2.274083  0  -1.161698  0  -0.332628  -0.563808  0  2.30247  0
