# generated using pymatgen
data_ZnH14C18(NO2)2
_symmetry_space_group_name_H-M   'P 1'
_cell_length_a   12.37816661
_cell_length_b   13.28978825
_cell_length_c   15.81230452
_cell_angle_alpha   90.00004912
_cell_angle_beta   89.99993313
_cell_angle_gamma   90.00007737
_symmetry_Int_Tables_number   1
_chemical_formula_structural   ZnH14C18(NO2)2
_chemical_formula_sum   'Zn4 H56 C72 N8 O16'
_cell_volume   2601.17490123
_cell_formula_units_Z   4
loop_
 _symmetry_equiv_pos_site_id
 _symmetry_equiv_pos_as_xyz
  1  'x, y, z'
loop_
 _atom_site_type_symbol
 _atom_site_label
 _atom_site_symmetry_multiplicity
 _atom_site_fract_x
 _atom_site_fract_y
 _atom_site_fract_z
 _atom_site_occupancy
 _atom_site_pbe_bader_charge
 _atom_site_pbe_bader_spin_density
 _atom_site_pbe_cm5_charge
 _atom_site_pbe_ddec_charge
 _atom_site_pbe_ddec_spin_density
 _atom_site_pbe_ddec_sum_bond_order
 _atom_site_pbe_magmom
Zn  Zn0  1  0.85188383  0.25000013  0.25000058  1  1.255724  0  0.678022  0.74246  0  2.411443  0
Zn  Zn1  1  0.64811653  0.75000045  0.25000022  1  1.255718  0  0.678004  0.742416  0  2.411488  0
Zn  Zn2  1  0.14811481  0.75000114  0.75000030  1  1.255663  0  0.678053  0.742491  0  2.41141  0
Zn  Zn3  1  0.35188372  0.25000007  0.74999877  1  1.255703  0  0.678051  0.742509  0  2.411415  0
H  H4  1  0.08511623  0.34452248  0.01877217  1  0.063465  0  0.100755  0.114847  0  1.012451  0
H  H5  1  0.41488581  0.65548024  0.01877340  1  0.063401  0  0.100761  0.114848  0  1.01252  0
H  H6  1  0.41488560  0.84452036  0.48122915  1  0.063392  0  0.100748  0.114837  0  1.012497  0
H  H7  1  0.08511090  0.15547606  0.48122842  1  0.06321  0  0.100751  0.114818  0  1.012538  0
H  H8  1  0.91488725  0.65547954  0.98122934  1  0.063391  0  0.100759  0.114837  0  1.012523  0
H  H9  1  0.58510959  0.34452103  0.98123001  1  0.063405  0  0.100747  0.114844  0  1.012581  0
H  H10  1  0.58511384  0.15547866  0.51877110  1  0.063402  0  0.100771  0.114846  0  1.012478  0
H  H11  1  0.91488450  0.84451919  0.51877247  1  0.063376  0  0.100761  0.114927  0  1.012479  0
H  H12  1  0.91404036  0.50050069  0.07273046  1  0.09405  0  0.103714  0.103685  0  0.991226  0
H  H13  1  0.58595865  0.49949821  0.07272935  1  0.094067  0  0.103695  0.103691  0  0.991221  0
H  H14  1  0.58595883  0.00050097  0.42727015  1  0.094061  0  0.103698  0.103678  0  0.991233  0
H  H15  1  0.91403722  0.99949678  0.42726847  1  0.09408  0  0.103742  0.103744  0  0.99114  0
H  H16  1  0.08596071  0.49950058  0.92726915  1  0.094049  0  0.103703  0.103655  0  0.991222  0
H  H17  1  0.41403756  0.50050081  0.92726964  1  0.094118  0  0.103703  0.103688  0  0.991225  0
H  H18  1  0.41403900  0.99949955  0.57273136  1  0.094024  0  0.1037  0.103652  0  0.991241  0
H  H19  1  0.08595738  0.00049998  0.57272862  1  0.094113  0  0.103698  0.103712  0  0.991143  0
H  H20  1  0.77772004  0.25601231  0.43433554  1  0.085533  0  0.11902  0.090048  0  0.993109  0
H  H21  1  0.72228085  0.74398920  0.43433574  1  0.085532  0  0.119009  0.090041  0  0.993101  0
H  H22  1  0.72228113  0.75601178  0.06566399  1  0.085531  0  0.119013  0.090037  0  0.993108  0
H  H23  1  0.77771950  0.24399011  0.06566379  1  0.085511  0  0.118999  0.090012  0  0.993093  0
H  H24  1  0.22228021  0.74398820  0.56566471  1  0.085539  0  0.119019  0.090048  0  0.99311  0
H  H25  1  0.27771779  0.25601282  0.56566388  1  0.085559  0  0.119027  0.090083  0  0.993089  0
H  H26  1  0.27771912  0.24398874  0.93433499  1  0.085536  0  0.11901  0.090053  0  0.993093  0
H  H27  1  0.22228237  0.75601040  0.93433646  1  0.085525  0  0.119002  0.090022  0  0.993098  0
H  H28  1  0.64656412  0.35340359  0.52115157  1  0.113389  0  0.114329  0.129159  0  1.001855  0
H  H29  1  0.85343584  0.64659726  0.52115158  1  0.113369  0  0.114329  0.129177  0  1.001844  0
H  H30  1  0.85343726  0.85340214  0.97884838  1  0.113386  0  0.114348  0.129173  0  1.001959  0
H  H31  1  0.64656605  0.14659617  0.97884759  1  0.113325  0  0.114338  0.129179  0  1.001928  0
H  H32  1  0.35343533  0.64659617  0.47884805  1  0.11334  0  0.114322  0.129158  0  1.001834  0
H  H33  1  0.14656361  0.35340552  0.47884804  1  0.113399  0  0.114328  0.129172  0  1.001825  0
H  H34  1  0.14656622  0.14659537  0.02115124  1  0.113374  0  0.114341  0.129171  0  1.00185  0
H  H35  1  0.35343824  0.85340285  0.02115203  1  0.113355  0  0.114333  0.129149  0  1.001951  0
H  H36  1  0.56151546  0.51669346  0.29295723  1  0.131058  0  0.115266  0.135705  0  0.997264  0
H  H37  1  0.93848322  0.48330566  0.29295767  1  0.131047  0  0.115272  0.135713  0  0.997219  0
H  H38  1  0.93848294  0.01669547  0.20704150  1  0.131008  0  0.115295  0.135741  0  0.997234  0
H  H39  1  0.56151748  0.98330431  0.20704202  1  0.131023  0  0.115287  0.135734  0  0.997201  0
H  H40  1  0.43848479  0.48330631  0.70704176  1  0.131075  0  0.115269  0.135697  0  0.997233  0
H  H41  1  0.06151461  0.51669561  0.70704257  1  0.131044  0  0.115309  0.135749  0  0.997197  0
H  H42  1  0.06151973  0.98330354  0.79295875  1  0.131041  0  0.115285  0.135726  0  0.997246  0
H  H43  1  0.43848116  0.01669621  0.79295886  1  0.131013  0  0.115287  0.135702  0  0.997225  0
H  H44  1  0.69226663  0.40814550  0.21568629  1  0.084992  0  0.120018  0.090095  0  0.987438  0
H  H45  1  0.80773297  0.59185429  0.21568757  1  0.085002  0  0.120001  0.090088  0  0.987474  0
H  H46  1  0.80773315  0.90814680  0.28431272  1  0.084917  0  0.120005  0.090096  0  0.987451  0
H  H47  1  0.69226796  0.09185381  0.28431185  1  0.085019  0  0.120015  0.090121  0  0.987449  0
H  H48  1  0.30773524  0.59185427  0.78431396  1  0.084905  0  0.119995  0.090087  0  0.987443  0
H  H49  1  0.19226566  0.40814623  0.78431331  1  0.085006  0  0.12  0.090069  0  0.987455  0
H  H50  1  0.19226710  0.09185221  0.71568626  1  0.084902  0  0.120004  0.090083  0  0.987423  0
H  H51  1  0.30773148  0.90814671  0.71568777  1  0.084926  0  0.120009  0.090107  0  0.98746  0
H  H52  1  0.48708516  0.57361613  0.42453582  1  0.141899  0  0.107469  0.124682  0  1.033121  0
H  H53  1  0.01291305  0.42638324  0.42453852  1  0.141993  0  0.107492  0.124716  0  1.03313  0
H  H54  1  0.01291386  0.07361672  0.07546151  1  0.141988  0  0.10749  0.124693  0  1.033154  0
H  H55  1  0.48708810  0.92638230  0.07546160  1  0.141989  0  0.107471  0.124684  0  1.033116  0
H  H56  1  0.51291510  0.42638439  0.57546063  1  0.14201  0  0.107484  0.124715  0  1.033072  0
H  H57  1  0.98708478  0.57361803  0.57546173  1  0.141951  0  0.107473  0.124706  0  1.033109  0
H  H58  1  0.98708720  0.92638079  0.92453874  1  0.141968  0  0.107466  0.124652  0  1.033166  0
H  H59  1  0.51291377  0.07361822  0.92453802  1  0.141966  0  0.10748  0.124713  0  1.03311  0
C  C60  1  0.97498378  0.31603506  0.12450714  1  1.530465  0  0.184664  0.594773  0  4.245075  0
C  C61  1  0.52502080  0.68396389  0.12450874  1  1.53054  0  0.184697  0.594765  0  4.245169  0
C  C62  1  0.52501990  0.81603535  0.37549181  1  1.530654  0  0.184651  0.594729  0  4.245174  0
C  C63  1  0.97498027  0.18396310  0.37549138  1  1.53066  0  0.184701  0.594785  0  4.24515  0
C  C64  1  0.02501890  0.68396546  0.87549185  1  1.530718  0  0.184678  0.594801  0  4.245067  0
C  C65  1  0.47497945  0.31603437  0.87549151  1  1.530617  0  0.184653  0.594732  0  4.245123  0
C  C66  1  0.47498116  0.18396442  0.62450907  1  1.530538  0  0.184659  0.59476  0  4.245106  0
C  C67  1  0.02501918  0.81603666  0.62450824  1  1.530504  0  0.184658  0.594722  0  4.245229  0
C  C68  1  0.01972933  0.37848162  0.05529947  1  -0.178376  0  -0.094122  -0.22511  0  3.898619  0
C  C69  1  0.48027105  0.62152039  0.05529808  1  -0.178349  0  -0.094099  -0.225082  0  3.898576  0
C  C70  1  0.48027175  0.87847954  0.44470251  1  -0.178297  0  -0.09405  -0.225054  0  3.898567  0
C  C71  1  0.01972723  0.12151835  0.44470245  1  -0.17808  0  -0.094097  -0.225016  0  3.898591  0
C  C72  1  0.98027254  0.62152191  0.94470394  1  -0.178384  0  -0.094062  -0.225061  0  3.898589  0
C  C73  1  0.51972597  0.37847712  0.94470470  1  -0.178335  0  -0.094087  -0.225097  0  3.898578  0
C  C74  1  0.51972850  0.12152023  0.55529774  1  -0.178299  0  -0.094087  -0.225024  0  3.898485  0
C  C75  1  0.98027060  0.87847840  0.55529843  1  -0.178406  0  -0.093999  -0.225081  0  3.898488  0
C  C76  1  0.98030623  0.47014507  0.03468790  1  0.113798  0  -0.0806  -0.037142  0  4.02688  0
C  C77  1  0.51969364  0.52985529  0.03468750  1  0.113843  0  -0.080612  -0.037147  0  4.026807  0
C  C78  1  0.51969525  0.97014394  0.46531243  1  0.052716  0  -0.080603  -0.037104  0  4.026773  0
C  C79  1  0.98030075  0.02985460  0.46531124  1  0.052609  0  -0.080634  -0.03719  0  4.026705  0
C  C80  1  0.01969644  0.52985771  0.96531298  1  0.052753  0  -0.080592  -0.037062  0  4.026761  0
C  C81  1  0.48030015  0.47014373  0.96531275  1  0.052604  0  -0.080565  -0.037094  0  4.026691  0
C  C82  1  0.48030419  0.02985583  0.53468846  1  0.113788  0  -0.08062  -0.037152  0  4.026786  0
C  C83  1  0.01969224  0.97014215  0.53468711  1  0.11387  0  -0.080688  -0.037259  0  4.026602  0
C  C84  1  0.72661965  0.31360235  0.40577555  1  0.46382  0  0.044305  0.085975  0  3.972894  0
C  C85  1  0.77338209  0.68639763  0.40577629  1  0.463806  0  0.044323  0.086007  0  3.972838  0
C  C86  1  0.77338161  0.81360191  0.09422340  1  0.463842  0  0.044306  0.086034  0  3.972731  0
C  C87  1  0.72661817  0.18639851  0.09422319  1  0.463819  0  0.044333  0.086071  0  3.97272  0
C  C88  1  0.27338141  0.68639742  0.59422407  1  0.463833  0  0.044317  0.08601  0  3.972894  0
C  C89  1  0.22661897  0.31360288  0.59422522  1  0.463848  0  0.044224  0.085835  0  3.972737  0
C  C90  1  0.22662026  0.18639710  0.90577496  1  0.463771  0  0.044259  0.085907  0  3.972698  0
C  C91  1  0.27338289  0.81360126  0.90577706  1  0.463827  0  0.044321  0.085997  0  3.972737  0
C  C92  1  0.65413153  0.36872887  0.45368892  1  -0.015178  0  -0.076118  -0.169037  0  3.911323  0
C  C93  1  0.84586690  0.63127042  0.45368893  1  -0.015171  0  -0.076181  -0.169207  0  3.91146  0
C  C94  1  0.84586980  0.86872997  0.04631006  1  -0.015205  0  -0.076191  -0.16919  0  3.911526  0
C  C95  1  0.65413328  0.13126965  0.04630989  1  -0.015185  0  -0.07617  -0.169183  0  3.911471  0
C  C96  1  0.34586791  0.63126940  0.54631070  1  -0.015155  0  -0.076187  -0.169144  0  3.911425  0
C  C97  1  0.15413012  0.36873010  0.54631195  1  -0.015174  0  -0.076178  -0.169138  0  3.911391  0
C  C98  1  0.15413287  0.13126979  0.95368892  1  -0.015172  0  -0.076175  -0.169117  0  3.911389  0
C  C99  1  0.34587020  0.86873012  0.95368973  1  -0.01519  0  -0.076162  -0.169073  0  3.911497  0
C  C100  1  0.59189381  0.44431918  0.41438730  1  -0.032012  0  0.014162  0.160443  0  3.999561  0
C  C101  1  0.90810550  0.55567931  0.41438783  1  -0.032503  0  0.014238  0.160664  0  3.999708  0
C  C102  1  0.90810683  0.94432040  0.08561173  1  -0.032425  0  0.014206  0.160581  0  3.999604  0
C  C103  1  0.59189619  0.05568076  0.08561093  1  -0.032803  0  0.014232  0.160657  0  3.999534  0
C  C104  1  0.40810564  0.55567984  0.58561105  1  -0.03251  0  0.014216  0.160566  0  3.999762  0
C  C105  1  0.09189314  0.44431970  0.58561178  1  -0.032754  0  0.014235  0.160623  0  3.999761  0
C  C106  1  0.09189746  0.05567936  0.91438852  1  -0.032832  0  0.014208  0.160567  0  3.999756  0
C  C107  1  0.40810648  0.94431976  0.91438806  1  -0.032747  0  0.014202  0.160517  0  3.999803  0
C  C108  1  0.60574488  0.45829227  0.32683650  1  -0.046018  0  -0.075795  -0.167957  0  3.898845  0
C  C109  1  0.89425294  0.54170763  0.32683766  1  -0.045951  0  -0.075822  -0.168033  0  3.898966  0
C  C110  1  0.89425335  0.95829357  0.17316255  1  -0.045966  0  -0.075782  -0.167988  0  3.898937  0
C  C111  1  0.60574793  0.04170768  0.17316172  1  -0.045915  0  -0.075816  -0.168043  0  3.898971  0
C  C112  1  0.39425456  0.54170749  0.67316185  1  -0.045999  0  -0.075782  -0.167946  0  3.898961  0
C  C113  1  0.10574489  0.45829289  0.67316259  1  -0.046016  0  -0.075849  -0.168084  0  3.899049  0
C  C114  1  0.10574609  0.04170619  0.82683833  1  -0.045961  0  -0.075844  -0.168091  0  3.898998  0
C  C115  1  0.39425313  0.95829359  0.82683790  1  -0.045975  0  -0.075827  -0.167961  0  3.899029  0
C  C116  1  0.67891403  0.39858555  0.28341519  1  0.521043  0  0.047061  0.092007  0  3.966051  0
C  C117  1  0.82108466  0.60141506  0.28341457  1  0.520492  0  0.047022  0.09192  0  3.966051  0
C  C118  1  0.82108655  0.89858680  0.21658508  1  0.520568  0  0.047023  0.091966  0  3.966073  0
C  C119  1  0.67891467  0.10141525  0.21658485  1  0.521034  0  0.047021  0.091907  0  3.966088  0
C  C120  1  0.32108703  0.60141421  0.71658505  1  0.521117  0  0.047024  0.091959  0  3.966032  0
C  C121  1  0.17891236  0.39858696  0.71658441  1  0.520473  0  0.047086  0.092081  0  3.965994  0
C  C122  1  0.17891452  0.10141221  0.78341581  1  0.520573  0  0.047077  0.092077  0  3.965979  0
C  C123  1  0.32108558  0.89858678  0.78341603  1  0.521157  0  0.046994  0.091878  0  3.965988  0
C  C124  1  0.51626388  0.50824116  0.45979061  1  -0.103457  0  -0.07797  -0.119713  0  3.926005  0
C  C125  1  0.98373455  0.49175963  0.45979229  1  -0.000173  0  -0.077987  -0.119773  0  3.926042  0
C  C126  1  0.98373532  0.00824005  0.04020811  1  -0.103097  0  -0.07797  -0.119744  0  3.926016  0
C  C127  1  0.51626616  0.99175881  0.04020742  1  0.000161  0  -0.07799  -0.119757  0  3.925922  0
C  C128  1  0.48373476  0.49176011  0.54020711  1  -0.000161  0  -0.077936  -0.11969  0  3.925991  0
C  C129  1  0.01626409  0.50824164  0.54020796  1  -0.102789  0  -0.077915  -0.119682  0  3.926012  0
C  C130  1  0.01626655  0.99175897  0.95979087  1  0.00017  0  -0.077931  -0.119612  0  3.925916  0
C  C131  1  0.48373571  0.00824171  0.95979220  1  -0.102788  0  -0.077931  -0.119698  0  3.925997  0
N  N132  1  0.73950612  0.32801714  0.32191807  1  -1.272373  0  -0.334784  -0.244584  0  3.592654  0
N  N133  1  0.76049413  0.67198351  0.32191755  1  -1.272368  0  -0.334725  -0.244452  0  3.592455  0
N  N134  1  0.76049435  0.82801602  0.17808215  1  -1.272313  0  -0.334749  -0.244565  0  3.592387  0
N  N135  1  0.73950611  0.17198449  0.17808129  1  -1.272352  0  -0.334751  -0.244528  0  3.592372  0
N  N136  1  0.26049413  0.67198413  0.67808218  1  -1.27233  0  -0.334733  -0.244572  0  3.592583  0
N  N137  1  0.23950531  0.32801701  0.67808270  1  -1.272344  0  -0.334736  -0.244532  0  3.592372  0
N  N138  1  0.23950671  0.17198299  0.82191683  1  -1.272318  0  -0.334725  -0.244545  0  3.592464  0
N  N139  1  0.26049414  0.82801603  0.82191959  1  -1.272321  0  -0.334711  -0.244472  0  3.592242  0
O  O140  1  0.90277437  0.35776934  0.17342226  1  -1.170942  0  -0.343437  -0.57133  0  2.287458  0
O  O141  1  0.59722771  0.64222891  0.17342250  1  -1.171067  0  -0.343475  -0.571296  0  2.287485  0
O  O142  1  0.59722695  0.85777042  0.32657988  1  -1.171147  0  -0.34348  -0.571332  0  2.287558  0
O  O143  1  0.90277249  0.14222798  0.32657822  1  -1.171071  0  -0.343482  -0.571312  0  2.287465  0
O  O144  1  0.09722588  0.64223043  0.82657989  1  -1.171097  0  -0.343468  -0.571328  0  2.287509  0
O  O145  1  0.40277254  0.35776936  0.82657838  1  -1.171022  0  -0.343489  -0.571322  0  2.28743  0
O  O146  1  0.40277411  0.14222935  0.67342163  1  -1.171027  0  -0.343451  -0.571309  0  2.287529  0
O  O147  1  0.09722615  0.85777254  0.67342013  1  -1.170976  0  -0.34347  -0.571304  0  2.287536  0
O  O148  1  0.00459364  0.22604506  0.13262591  1  -1.173705  0  -0.326995  -0.557861  0  2.093182  0
O  O149  1  0.49541066  0.77395402  0.13262778  1  -1.173647  0  -0.326972  -0.557868  0  2.093252  0
O  O150  1  0.49541045  0.72604518  0.36737217  1  -1.17368  0  -0.326962  -0.557833  0  2.0932  0
O  O151  1  0.00458865  0.27395414  0.36737412  1  -1.173748  0  -0.32696  -0.557879  0  2.093246  0
O  O152  1  0.99540985  0.77395546  0.86737308  1  -1.173718  0  -0.326997  -0.557897  0  2.093183  0
O  O153  1  0.50459040  0.22604499  0.86737310  1  -1.173708  0  -0.326955  -0.557842  0  2.093215  0
O  O154  1  0.50459061  0.27395459  0.63262745  1  -1.173684  0  -0.326984  -0.557897  0  2.093186  0
O  O155  1  0.99540999  0.72604563  0.63262802  1  -1.173643  0  -0.326984  -0.557865  0  2.093249  0
