# generated using pymatgen
data_ZnH10C12(N2Cl)2
_symmetry_space_group_name_H-M   'P 1'
_cell_length_a   9.04538497
_cell_length_b   10.34490975
_cell_length_c   14.59760000
_cell_angle_alpha   90.00000000
_cell_angle_beta   90.00000000
_cell_angle_gamma   98.13087832
_symmetry_Int_Tables_number   1
_chemical_formula_structural   ZnH10C12(N2Cl)2
_chemical_formula_sum   'Zn4 H40 C48 N16 Cl8'
_cell_volume   1352.22019542
_cell_formula_units_Z   4
loop_
 _symmetry_equiv_pos_site_id
 _symmetry_equiv_pos_as_xyz
  1  'x, y, z'
loop_
 _atom_site_type_symbol
 _atom_site_label
 _atom_site_symmetry_multiplicity
 _atom_site_fract_x
 _atom_site_fract_y
 _atom_site_fract_z
 _atom_site_occupancy
 _atom_site_pbe_bader_charge
 _atom_site_pbe_bader_spin_density
 _atom_site_pbe_cm5_charge
 _atom_site_pbe_ddec_charge
 _atom_site_pbe_ddec_spin_density
 _atom_site_pbe_ddec_sum_bond_order
 _atom_site_pbe_magmom
Zn  Zn0  1  0.24415908  0.26264441  0.61486135  1  1.127195  0  0.562356  0.630094  0  2.65476  0
Zn  Zn1  1  0.25584215  0.23735469  0.11486272  1  1.127271  0  0.56238  0.630102  0  2.65478  0
Zn  Zn2  1  0.75584038  0.73735575  0.38513797  1  1.127185  0  0.562383  0.630148  0  2.654689  0
Zn  Zn3  1  0.74415842  0.76264547  0.88513728  1  1.127255  0  0.56237  0.630102  0  2.654753  0
H  H4  1  0.04512198  0.12058098  0.75857812  1  0.136723  0  0.107661  0.083012  0  1.033614  0
H  H5  1  0.45488020  0.37941714  0.25857881  1  0.136711  0  0.107643  0.082969  0  1.03361  0
H  H6  1  0.95487954  0.87941820  0.24142188  1  0.136728  0  0.107644  0.082981  0  1.033639  0
H  H7  1  0.54511910  0.62058204  0.74142119  1  0.1367  0  0.107643  0.082988  0  1.033605  0
H  H8  1  0.97044820  0.16466590  0.91959021  1  0.132713  0  0.100941  0.119563  0  1.025022  0
H  H9  1  0.52955327  0.33533125  0.41959089  1  0.132482  0  0.100929  0.119528  0  1.025057  0
H  H10  1  0.02954936  0.83533622  0.08040979  1  0.132696  0  0.100937  0.119551  0  1.025013  0
H  H11  1  0.47044698  0.66466695  0.58040911  1  0.132562  0  0.100928  0.119548  0  1.025016  0
H  H12  1  0.04943128  0.38801403  0.98546610  1  0.121422  0  0.100113  0.100483  0  1.042561  0
H  H13  1  0.45057122  0.11198605  0.48546610  1  0.121603  0  0.100151  0.100565  0  1.042568  0
H  H14  1  0.95056850  0.61198808  0.01453321  1  0.12142  0  0.10013  0.100527  0  1.042526  0
H  H15  1  0.54942919  0.88801313  0.51453321  1  0.121586  0  0.100142  0.100563  0  1.042558  0
H  H16  1  0.26159298  0.49939467  0.72715309  1  0.127137  0  0.114141  0.087455  0  1.026659  0
H  H17  1  0.23840698  0.00060346  0.22715515  1  0.127148  0  0.114147  0.087451  0  1.026649  0
H  H18  1  0.73840664  0.50060647  0.27284622  1  0.12713  0  0.114138  0.087458  0  1.026688  0
H  H19  1  0.76159232  0.99939572  0.77284485  1  0.127156  0  0.114136  0.087454  0  1.026626  0
H  H20  1  0.18454486  0.61050579  0.96988204  1  0.104467  0  0.110308  0.084491  0  1.018994  0
H  H21  1  0.31545449  0.88948859  0.46987930  1  0.104485  0  0.110309  0.084475  0  1.019064  0
H  H22  1  0.81545540  0.38949241  0.03011865  1  0.10447  0  0.110302  0.084476  0  1.019008  0
H  H23  1  0.68454592  0.11051060  0.53012002  1  0.104452  0  0.110306  0.084467  0  1.019059  0
H  H24  1  0.33637424  0.88950714  0.76522716  1  0.074515  0  0.110436  0.0838  0  1.006845  0
H  H25  1  0.16362606  0.61049310  0.26522648  1  0.074483  0  0.110446  0.083797  0  1.006835  0
H  H26  1  0.66362507  0.11049204  0.23477352  1  0.074477  0  0.110455  0.083807  0  1.006861  0
H  H27  1  0.83637451  0.38950706  0.73477352  1  0.07448  0  0.110478  0.08383  0  1.006862  0
H  H28  1  0.46763393  0.37584422  0.97994259  1  0.143802  0  0.106467  0.079369  0  1.025092  0
H  H29  1  0.03236636  0.12415586  0.47994054  1  0.143825  0  0.106471  0.079368  0  1.025102  0
H  H30  1  0.53236680  0.62415691  0.02005809  1  0.143831  0  0.106467  0.079374  0  1.025116  0
H  H31  1  0.96763184  0.87584333  0.52005809  1  0.14383  0  0.106466  0.07938  0  1.02512  0
H  H32  1  0.55229511  0.33613685  0.82080822  1  0.148412  0  0.098643  0.120746  0  1.029602  0
H  H33  1  0.94770479  0.16386421  0.32080753  1  0.148387  0  0.098636  0.1207  0  1.029643  0
H  H34  1  0.44770578  0.66386527  0.17919178  1  0.148429  0  0.098658  0.120749  0  1.029595  0
H  H35  1  0.05229341  0.83613497  0.67919178  1  0.148425  0  0.09866  0.120759  0  1.029595  0
H  H36  1  0.48507818  0.11292835  0.75256275  1  0.127549  0  0.102609  0.102722  0  1.034225  0
H  H37  1  0.01492100  0.38707173  0.25256069  1  0.127894  0  0.102619  0.102688  0  1.034207  0
H  H38  1  0.51492239  0.88707181  0.24743862  1  0.127923  0  0.102628  0.102739  0  1.034163  0
H  H39  1  0.98507720  0.61292745  0.74743862  1  0.127527  0  0.102629  0.102727  0  1.03418  0
H  H40  1  0.26111616  0.99243834  0.00591878  1  0.138343  0  0.114286  0.089499  0  1.017736  0
H  H41  1  0.23888287  0.50756093  0.50591673  1  0.138338  0  0.114299  0.089501  0  1.017728  0
H  H42  1  0.73888473  0.00756377  0.99408190  1  0.138331  0  0.114317  0.089502  0  1.017756  0
H  H43  1  0.76111627  0.49243728  0.49408259  1  0.138349  0  0.114313  0.089501  0  1.017714  0
C  C44  1  0.07301584  0.21683407  0.78937428  1  0.488584  0  0.050217  0.097172  0  3.917094  0
C  C45  1  0.42698539  0.28316503  0.28937565  1  0.488657  0  0.050192  0.097179  0  3.917152  0
C  C46  1  0.92698678  0.78316511  0.21062709  1  0.488641  0  0.050237  0.097197  0  3.917078  0
C  C47  1  0.57301502  0.71683415  0.71062435  1  0.488618  0  0.050194  0.097177  0  3.917109  0
C  C48  1  0.03168309  0.24246361  0.87858963  1  -0.043478  0  -0.080565  -0.110513  0  3.945651  0
C  C49  1  0.46831625  0.25753745  0.37859100  1  -0.043374  0  -0.080479  -0.110404  0  3.945752  0
C  C50  1  0.96831874  0.75753753  0.12141037  1  -0.043509  0  -0.080512  -0.11042  0  3.945612  0
C  C51  1  0.53168306  0.74246173  0.62140900  1  -0.043427  0  -0.080478  -0.110419  0  3.945675  0
C  C52  1  0.07529464  0.36637144  0.91472776  1  -0.074352  0  -0.059803  -0.062402  0  3.913812  0
C  C53  1  0.42470549  0.13362766  0.41472982  1  -0.074502  0  -0.059892  -0.062567  0  3.913883  0
C  C54  1  0.92470609  0.63362970  0.08527224  1  -0.074362  0  -0.059868  -0.062495  0  3.913807  0
C  C55  1  0.57529176  0.86637250  0.58527087  1  -0.074487  0  -0.059881  -0.062568  0  3.913891  0
C  C56  1  0.15827801  0.46305222  0.86060037  1  0.044334  0  -0.006031  0.02072  0  4.014534  0
C  C57  1  0.34172433  0.03694688  0.36060037  1  0.044428  0  -0.005987  0.020822  0  4.014434  0
C  C58  1  0.84172366  0.53694794  0.13939963  1  0.044347  0  -0.006009  0.02078  0  4.014482  0
C  C59  1  0.65827403  0.96305328  0.63940031  1  0.044443  0  -0.006007  0.020803  0  4.014476  0
C  C60  1  0.19464346  0.42906308  0.77136790  1  0.476272  0  0.056498  0.060815  0  3.884864  0
C  C61  1  0.30535888  0.07093602  0.27136790  1  0.476186  0  0.056468  0.06075  0  3.884836  0
C  C62  1  0.80535695  0.57093610  0.22863279  1  0.476292  0  0.056474  0.060743  0  3.884879  0
C  C63  1  0.69464153  0.92906316  0.72863210  1  0.476184  0  0.0565  0.060779  0  3.88481  0
C  C64  1  0.20704951  0.59303861  0.89743656  1  0.621498  0  0.073422  0.056549  0  3.922854  0
C  C65  1  0.29295268  0.90695968  0.39743588  1  0.621532  0  0.073432  0.05656  0  3.92277  0
C  C66  1  0.79295106  0.40696155  0.10256412  1  0.621534  0  0.073434  0.05653  0  3.922903  0
C  C67  1  0.70704678  0.09304048  0.60256344  1  0.621521  0  0.073429  0.056581  0  3.922688  0
C  C68  1  0.34051828  0.90076687  0.84007371  1  0.673082  0  0.074144  0.064522  0  3.929244  0
C  C69  1  0.15948486  0.59923044  0.34007234  1  0.673136  0  0.074094  0.064556  0  3.929234  0
C  C70  1  0.65948450  0.09923329  0.15992697  1  0.673121  0  0.074093  0.064535  0  3.92928  0
C  C71  1  0.84051460  0.40076972  0.65992697  1  0.673146  0  0.07404  0.064444  0  3.929347  0
C  C72  1  0.44333574  0.27977862  0.94830452  1  0.439538  0  0.049476  0.10126  0  3.917592  0
C  C73  1  0.05666454  0.22022146  0.44830246  1  0.439533  0  0.049423  0.101198  0  3.917626  0
C  C74  1  0.55666609  0.72022252  0.05169617  1  0.439493  0  0.04947  0.101239  0  3.917654  0
C  C75  1  0.94333366  0.77977772  0.55169685  1  0.439537  0  0.049458  0.101208  0  3.917673  0
C  C76  1  0.49000022  0.25682658  0.85982696  1  -0.017291  0  -0.082064  -0.112613  0  3.951192  0
C  C77  1  0.00999880  0.24317253  0.35982559  1  -0.017059  0  -0.082007  -0.112513  0  3.951207  0
C  C78  1  0.51000145  0.74317358  0.14017304  1  -0.017597  0  -0.082059  -0.112581  0  3.95124  0
C  C79  1  0.98999829  0.75682666  0.64017373  1  -0.01729  0  -0.08204  -0.112576  0  3.95127  0
C  C80  1  0.45399997  0.13252034  0.82279142  1  -0.055927  0  -0.057552  -0.057015  0  3.89925  0
C  C81  1  0.04600016  0.36747876  0.32278936  1  -0.056612  0  -0.057529  -0.056859  0  3.899075  0
C  C82  1  0.54600392  0.86747982  0.17720995  1  -0.056309  0  -0.057556  -0.05697  0  3.899158  0
C  C83  1  0.95399693  0.63252042  0.67720995  1  -0.055922  0  -0.05756  -0.056965  0  3.89916  0
C  C84  1  0.37696211  0.03242873  0.87670850  1  -0.03051  0  -0.003374  0.028578  0  3.993732  0
C  C85  1  0.12303864  0.46756744  0.37670781  1  -0.030678  0  -0.003381  0.028474  0  3.993848  0
C  C86  1  0.62304177  0.96757143  0.12329287  1  -0.030542  0  -0.003389  0.028466  0  3.993674  0
C  C87  1  0.87695845  0.53243174  0.62329150  1  -0.030537  0  -0.003371  0.028556  0  3.993799  0
C  C88  1  0.33046993  0.06475689  0.96444347  1  0.516879  0  0.06121  0.071968  0  3.861408  0
C  C89  1  0.16953099  0.43524026  0.46444142  1  0.517103  0  0.061147  0.071887  0  3.861556  0
C  C90  1  0.66953174  0.93524327  0.03555721  1  0.51692  0  0.061175  0.071988  0  3.861353  0
C  C91  1  0.83046816  0.56475794  0.53555721  1  0.516861  0  0.061169  0.071938  0  3.861457  0
N  N92  1  0.15366220  0.30899768  0.73718008  1  -1.283737  0  -0.336334  -0.217641  0  3.613573  0
N  N93  1  0.34633793  0.19100143  0.23718008  1  -1.283712  0  -0.336333  -0.217606  0  3.613551  0
N  N94  1  0.84633932  0.69100151  0.26282129  1  -1.283782  0  -0.336357  -0.217675  0  3.61363  0
N  N95  1  0.65366248  0.80899776  0.76281992  1  -1.283727  0  -0.336345  -0.217647  0  3.61356  0
N  N96  1  0.27522084  0.68524226  0.84660424  1  -0.758342  0  -0.210532  -0.167922  0  3.331404  0
N  N97  1  0.22477662  0.81475408  0.34660081  1  -0.758428  0  -0.210586  -0.167988  0  3.331358  0
N  N98  1  0.72478005  0.31475986  0.15339576  1  -0.758425  0  -0.210533  -0.167876  0  3.331447  0
N  N99  1  0.77522269  0.18524511  0.65339850  1  -0.758408  0  -0.210541  -0.167948  0  3.331265  0
N  N100  1  0.31191160  0.80122795  0.89396682  1  -0.775499  0  -0.212489  -0.166606  0  3.339556  0
N  N101  1  0.18808822  0.69876936  0.39396545  1  -0.775441  0  -0.212442  -0.166595  0  3.339496  0
N  N102  1  0.68809133  0.19877319  0.10603455  1  -0.775436  0  -0.212446  -0.166597  0  3.339515  0
N  N103  1  0.81191109  0.30122982  0.60603455  1  -0.775448  0  -0.212455  -0.166586  0  3.339533  0
N  N104  1  0.36160720  0.18602336  0.99866964  1  -1.270994  0  -0.333147  -0.219603  0  3.607927  0
N  N105  1  0.13839403  0.31397575  0.49866827  1  -1.270977  0  -0.333085  -0.219508  0  3.607877  0
N  N106  1  0.63839384  0.81397973  0.00133173  1  -1.27067  0  -0.333161  -0.219625  0  3.607922  0
N  N107  1  0.86160417  0.68602344  0.50133036  1  -1.270988  0  -0.333139  -0.219567  0  3.607879  0
Cl  Cl108  1  0.46584933  0.38922486  0.61456267  1  -0.663054  0  -0.313097  -0.482472  0  1.228749  0
Cl  Cl109  1  0.03415206  0.11077522  0.11456335  1  -0.663061  0  -0.313101  -0.482483  0  1.22877  0
Cl  Cl110  1  0.53415108  0.61077433  0.38543665  1  -0.663041  0  -0.313098  -0.482484  0  1.228739  0
Cl  Cl111  1  0.96584740  0.88922494  0.88543596  1  -0.663029  0  -0.313105  -0.48249  0  1.228772  0
Cl  Cl112  1  0.23107291  0.04437297  0.61655752  1  -0.669312  0  -0.297948  -0.486043  0  1.244485  0
Cl  Cl113  1  0.26892832  0.45562613  0.11655957  1  -0.669346  0  -0.297949  -0.486039  0  1.244495  0
Cl  Cl114  1  0.76892766  0.95562719  0.38344111  1  -0.669295  0  -0.297955  -0.486055  0  1.244467  0
Cl  Cl115  1  0.73107209  0.54437305  0.88344043  1  -0.669346  0  -0.297946  -0.486045  0  1.244493  0
