# generated using pymatgen
data_H14PbC14(BrN2)2
_symmetry_space_group_name_H-M   'P 1'
_cell_length_a   4.26682512
_cell_length_b   14.70820200
_cell_length_c   16.64381748
_cell_angle_alpha   117.55424772
_cell_angle_beta   90.00070980
_cell_angle_gamma   89.99440769
_symmetry_Int_Tables_number   1
_chemical_formula_structural   H14PbC14(BrN2)2
_chemical_formula_sum   'H28 Pb2 C28 Br4 N8'
_cell_volume   926.04479617
_cell_formula_units_Z   2
loop_
 _symmetry_equiv_pos_site_id
 _symmetry_equiv_pos_as_xyz
  1  'x, y, z'
loop_
 _atom_site_type_symbol
 _atom_site_label
 _atom_site_symmetry_multiplicity
 _atom_site_fract_x
 _atom_site_fract_y
 _atom_site_fract_z
 _atom_site_occupancy
 _atom_site_pbe_bader_charge
 _atom_site_pbe_bader_spin_density
 _atom_site_pbe_cm5_charge
 _atom_site_pbe_ddec_charge
 _atom_site_pbe_ddec_spin_density
 _atom_site_pbe_ddec_sum_bond_order
 _atom_site_pbe_magmom
H  H0  1  0.12484389  0.35575456  0.11025503  1  0.073869  0  0.104989  0.079806  0  1.01556  0
H  H1  1  0.12482547  0.14430645  0.38974397  1  0.074385  0  0.104861  0.079684  0  1.016048  0
H  H2  1  0.87515046  0.64427851  0.88976280  1  0.074334  0  0.104944  0.079634  0  1.015855  0
H  H3  1  0.87516888  0.85570817  0.61025132  1  0.074343  0  0.104907  0.079688  0  1.015945  0
H  H4  1  0.15041093  0.33778853  0.95289836  1  0.096879  0  0.10731  0.111893  0  1.00958  0
H  H5  1  0.15050385  0.16224372  0.54709515  1  0.097529  0  0.107206  0.111731  0  1.009943  0
H  H6  1  0.84955061  0.66225066  0.04711535  1  0.097259  0  0.107339  0.111868  0  1.009795  0
H  H7  1  0.84950456  0.83775556  0.45289391  1  0.097636  0  0.107255  0.111797  0  1.009732  0
H  H8  1  0.71871074  0.06684030  0.87932071  1  0.131481  0  0.089817  0.108943  0  1.067805  0
H  H9  1  0.71876574  0.43316021  0.62069107  1  0.131467  0  0.089682  0.108978  0  1.068106  0
H  H10  1  0.28114768  0.93316742  0.12067057  1  0.131505  0  0.089677  0.108841  0  1.068231  0
H  H11  1  0.28102705  0.56688896  0.37932909  1  0.131413  0  0.089616  0.108796  0  1.068285  0
H  H12  1  0.67253279  0.09691220  0.03781478  1  0.092037  0  0.104264  0.074672  0  1.022772  0
H  H13  1  0.67258574  0.40309654  0.46218889  1  0.091771  0  0.104219  0.074559  0  1.022763  0
H  H14  1  0.32744985  0.90310851  0.96216857  1  0.091567  0  0.104257  0.074642  0  1.022506  0
H  H15  1  0.32740627  0.59691581  0.53781329  1  0.091919  0  0.104185  0.074519  0  1.02278  0
H  H16  1  0.50849966  0.07585531  0.66951460  1  0.072683  0  0.097531  0.139682  0  1.002628  0
H  H17  1  0.50850025  0.42415417  0.83048297  1  0.072862  0  0.097455  0.139608  0  1.002653  0
H  H18  1  0.49149001  0.92416161  0.33048164  1  0.072916  0  0.097457  0.139558  0  1.002657  0
H  H19  1  0.49149410  0.57585130  0.16952603  1  0.072799  0  0.097507  0.139639  0  1.002579  0
H  H20  1  0.61760659  0.02810750  0.74727211  1  0.066178  0  0.082082  0.131849  0  1.058662  0
H  H21  1  0.61757428  0.47190075  0.75273157  1  0.065951  0  0.081984  0.131806  0  1.058857  0
H  H22  1  0.38240417  0.97191556  0.25272842  1  0.066084  0  0.081955  0.131676  0  1.058916  0
H  H23  1  0.38233570  0.52810702  0.24727776  1  0.066141  0  0.082015  0.131798  0  1.058845  0
H  H24  1  0.86516548  0.11468423  0.72973498  1  0.064719  0  0.097684  0.150128  0  1.009623  0
H  H25  1  0.86519856  0.38532630  0.77027211  1  0.064051  0  0.097709  0.150151  0  1.00958  0
H  H26  1  0.13478903  0.88535339  0.27026968  1  0.064033  0  0.097665  0.150005  0  1.0097  0
H  H27  1  0.13477001  0.61468983  0.22971659  1  0.064228  0  0.097598  0.150019  0  1.00958  0
Pb  Pb28  1  0.37555271  0.25002219  0.25006138  1  1.174332  0  0.40841  0.751447  0  2.280421  0
Pb  Pb29  1  0.62537444  0.74975796  0.74990583  1  1.174068  0  0.408319  0.751159  0  2.28038  0
C  C30  1  0.25489635  0.29310329  0.05646334  1  0.531387  0  0.038467  0.083376  0  3.983503  0
C  C31  1  0.25492194  0.20693405  0.44353672  1  0.530953  0  0.038489  0.083408  0  3.984225  0
C  C32  1  0.74509566  0.70693283  0.94354911  1  0.531044  0  0.03836  0.083495  0  3.984045  0
C  C33  1  0.74509116  0.79307368  0.55645938  1  0.531425  0  0.038501  0.083453  0  3.984135  0
C  C34  1  0.26808703  0.28272749  0.96930560  1  -0.079729  0  -0.083423  -0.16034  0  3.951739  0
C  C35  1  0.26816901  0.21730082  0.53069011  1  -0.080438  0  -0.083106  -0.159776  0  3.951626  0
C  C36  1  0.73186982  0.71730862  0.03070505  1  -0.080351  0  -0.08318  -0.160024  0  3.951777  0
C  C37  1  0.73181831  0.78270691  0.46930539  1  -0.080779  0  -0.083145  -0.159846  0  3.951352  0
C  C38  1  0.43329714  0.19977576  0.90154008  1  0.002693  0  0.010332  0.066591  0  3.960284  0
C  C39  1  0.43337554  0.30023644  0.59845573  1  0.00239  0  0.010252  0.066395  0  3.959992  0
C  C40  1  0.56661518  0.80024960  0.09846079  1  0.002671  0  0.010173  0.066446  0  3.959956  0
C  C41  1  0.56656726  0.69977743  0.40154527  1  0.002975  0  0.010155  0.066262  0  3.960367  0
C  C42  1  0.58186929  0.13199704  0.92709300  1  -0.039478  0  -0.084947  -0.149079  0  3.925681  0
C  C43  1  0.58194939  0.36801364  0.57291089  1  -0.039405  0  -0.084903  -0.149048  0  3.925502  0
C  C44  1  0.41803600  0.86802370  0.07290118  1  -0.039327  0  -0.084914  -0.149149  0  3.925268  0
C  C45  1  0.41794653  0.63201405  0.42709874  1  -0.039768  0  -0.084727  -0.148689  0  3.92573  0
C  C46  1  0.55720350  0.14837237  0.01620483  1  0.472933  0  0.044475  0.093828  0  3.964777  0
C  C47  1  0.55727047  0.35164635  0.48380456  1  0.473346  0  0.044457  0.094028  0  3.964564  0
C  C48  1  0.44276507  0.85165758  0.98379250  1  0.473397  0  0.044456  0.094101  0  3.964297  0
C  C49  1  0.44271217  0.64837060  0.51620070  1  0.473002  0  0.044555  0.093866  0  3.964808  0
C  C50  1  0.45355608  0.18537420  0.80782537  1  0.613339  0  0.144162  0.24373  0  3.914083  0
C  C51  1  0.45360572  0.31464242  0.69217029  1  0.613594  0  0.144032  0.243597  0  3.914276  0
C  C52  1  0.54633750  0.81464272  0.19216966  1  0.61432  0  0.144035  0.243356  0  3.914416  0
C  C53  1  0.54631129  0.68536762  0.30783096  1  0.613466  0  0.143999  0.243189  0  3.914536  0
C  C54  1  0.61997884  0.09510604  0.73501395  1  -0.073976  0  -0.244445  -0.455342  0  3.932431  0
C  C55  1  0.61999717  0.40489902  0.76498549  1  -0.073718  0  -0.244412  -0.455295  0  3.932657  0
C  C56  1  0.37998973  0.90491702  0.26498598  1  -0.073669  0  -0.244281  -0.454848  0  3.932864  0
C  C57  1  0.37995031  0.59510413  0.23501716  1  -0.073803  0  -0.244279  -0.454967  0  3.932611  0
Br  Br58  1  0.87972901  0.41143354  0.29532952  1  -0.621866  0  -0.214967  -0.457762  0  1.232237  0
Br  Br59  1  0.87978427  0.08859266  0.20476815  1  -0.621958  0  -0.215027  -0.457798  0  1.232168  0
Br  Br60  1  0.12068487  0.58835594  0.70467752  1  -0.621936  0  -0.214756  -0.457614  0  1.233058  0
Br  Br61  1  0.12043508  0.91122358  0.79522635  1  -0.621864  0  -0.215145  -0.457835  0  1.231256  0
N  N62  1  0.39644703  0.22701138  0.08013092  1  -1.245586  0  -0.307847  -0.25506  0  3.469537  0
N  N63  1  0.39647638  0.27302861  0.41988296  1  -1.245558  0  -0.307862  -0.255149  0  3.470674  0
N  N64  1  0.60358014  0.77302472  0.91987612  1  -1.245596  0  -0.307822  -0.255102  0  3.469909  0
N  N65  1  0.60358125  0.72697376  0.58011576  1  -1.245699  0  -0.307978  -0.255043  0  3.470007  0
N  N66  1  0.32543100  0.25617258  0.79251299  1  -0.763714  0  -0.189523  -0.182716  0  3.40808  0
N  N67  1  0.32544657  0.24385076  0.70747715  1  -0.725344  0  -0.189396  -0.182473  0  3.40785  0
N  N68  1  0.67438758  0.74382978  0.20747671  1  -0.72576  0  -0.189349  -0.182357  0  3.407762  0
N  N69  1  0.67439545  0.75616463  0.29251786  1  -0.764052  0  -0.189367  -0.182387  0  3.40776  0
