# generated using pymatgen
data_Fe3H33C57N3O13
_symmetry_space_group_name_H-M   'P 1'
_cell_length_a   18.94458326
_cell_length_b   18.94471936
_cell_length_c   18.94480830
_cell_angle_alpha   61.31948152
_cell_angle_beta   61.31934836
_cell_angle_gamma   61.31949286
_symmetry_Int_Tables_number   1
_chemical_formula_structural   Fe3H33C57N3O13
_chemical_formula_sum   'Fe6 H66 C114 N6 O26'
_cell_volume   4950.40034114
_cell_formula_units_Z   2
loop_
 _symmetry_equiv_pos_site_id
 _symmetry_equiv_pos_as_xyz
  1  'x, y, z'
loop_
 _atom_site_type_symbol
 _atom_site_label
 _atom_site_symmetry_multiplicity
 _atom_site_fract_x
 _atom_site_fract_y
 _atom_site_fract_z
 _atom_site_occupancy
 _atom_site_pbe_bader_charge
 _atom_site_pbe_bader_spin_density
 _atom_site_pbe_cm5_charge
 _atom_site_pbe_ddec_charge
 _atom_site_pbe_ddec_spin_density
 _atom_site_pbe_ddec_sum_bond_order
 _atom_site_pbe_magmom
Fe  Fe0  1  0.35012428  0.14988023  0.24999624  1  1.637904  3.97182  0.812432  1.204446  4.350929  2.662846  3.941
Fe  Fe1  1  0.25000282  0.35011835  0.14987660  1  1.638009  3.971891  0.812415  1.204404  4.351032  2.66306  3.941
Fe  Fe2  1  0.14988231  0.25000050  0.35011913  1  1.637951  3.971877  0.812392  1.204419  4.35099  2.66295  3.941
Fe  Fe3  1  0.64987639  0.85011957  0.75000317  1  1.637964  3.971798  0.812456  1.204492  4.350905  2.662798  3.941
Fe  Fe4  1  0.74999721  0.64988225  0.85012326  1  1.638064  3.971906  0.812449  1.204488  4.351057  2.662963  3.941
Fe  Fe5  1  0.85011836  0.74999930  0.64988080  1  1.637863  3.971888  0.812429  1.204486  4.350993  2.662814  3.941
H  H6  1  0.47367333  0.03343612  0.35496568  1  0.109498  0.001187  0.116606  0.087199  0.000234  1.056128  0.001
H  H7  1  0.48875954  0.92215969  0.47605525  1  0.074676  0.000218  0.104998  0.107327  7.7e-05  0.998612  0.0
H  H8  1  0.54737063  0.88381729  0.58653092  1  0.109772  0.000245  0.107519  0.110216  9e-06  1.008145  0.0
H  H9  1  0.80145014  0.82063748  0.41361435  1  0.08855  0.000492  0.106101  0.11072  0.000137  0.994015  0.0
H  H10  1  0.74374726  0.86139489  0.30082517  1  0.044769  0.000202  0.10044  0.100115  8e-05  1.003785  0.0
H  H11  1  0.35496767  0.47367393  0.03343272  1  0.109442  0.001187  0.1166  0.087212  0.000234  1.056214  0.001
H  H12  1  0.47606023  0.48876285  0.92215886  1  0.074857  0.000218  0.10499  0.107298  7.8e-05  0.998391  0.0
H  H13  1  0.58653197  0.54738456  0.88381229  1  0.110176  0.000245  0.107552  0.110343  9e-06  1.008028  0.0
H  H14  1  0.41360057  0.80145746  0.82063614  1  0.088459  0.000492  0.106068  0.110672  0.000137  0.993987  0.0
H  H15  1  0.30081810  0.74374227  0.86139706  1  0.044438  0.000202  0.100461  0.1002  8e-05  1.003784  0.0
H  H16  1  0.03343862  0.35496930  0.47366718  1  0.109408  0.001187  0.116587  0.087206  0.000234  1.056184  0.001
H  H17  1  0.92216174  0.47605890  0.48876801  1  0.074772  0.000218  0.10497  0.107264  7.8e-05  0.998452  0.0
H  H18  1  0.88380663  0.58653176  0.54738830  1  0.11013  0.000245  0.107565  0.110376  9e-06  1.008097  0.0
H  H19  1  0.82062972  0.41360325  0.80146124  1  0.08837  0.000492  0.10608  0.110693  0.000137  0.993926  0.0
H  H20  1  0.86139721  0.30081850  0.74374719  1  0.04457  0.000202  0.100472  0.100221  8e-05  1.003706  0.0
H  H21  1  0.46656923  0.02632853  0.14502730  1  0.109218  0.001187  0.116566  0.087168  0.000234  1.056111  0.001
H  H22  1  0.57784301  0.01123991  0.02394255  1  0.074722  0.000218  0.104999  0.107282  7.8e-05  0.998539  0.0
H  H23  1  0.61618486  0.95262291  0.91347088  1  0.109876  0.000245  0.10753  0.110255  9e-06  1.008147  0.0
H  H24  1  0.67936279  0.69854761  0.08639278  1  0.08858  0.000492  0.106083  0.110726  0.000137  0.993996  0.0
H  H25  1  0.63860478  0.75625796  0.19918019  1  0.044567  0.000202  0.100437  0.100119  8e-05  1.003732  0.0
H  H26  1  0.02633240  0.14503004  0.46656560  1  0.109457  0.001187  0.116583  0.087164  0.000234  1.056229  0.001
H  H27  1  0.01123090  0.02393998  0.57784447  1  0.074808  0.000218  0.104991  0.107295  7.8e-05  0.998498  0.0
H  H28  1  0.95260842  0.91347268  0.61619042  1  0.110139  0.000245  0.107571  0.110428  9e-06  1.008144  0.0
H  H29  1  0.69853578  0.08639820  0.67937087  1  0.088359  0.000492  0.106085  0.11071  0.000137  0.993943  0.0
H  H30  1  0.75624900  0.19918038  0.63861205  1  0.044378  0.000202  0.100461  0.100229  8e-05  1.003773  0.0
H  H31  1  0.14503312  0.46656106  0.02632560  1  0.109373  0.001188  0.116593  0.087173  0.000234  1.0562  0.001
H  H32  1  0.02394178  0.57783598  0.01124047  1  0.074711  0.000218  0.104972  0.107227  7.8e-05  0.99853  0.0
H  H33  1  0.91346486  0.61618802  0.95262557  1  0.109802  0.000245  0.107539  0.110273  9e-06  1.008187  0.0
H  H34  1  0.08638579  0.67936381  0.69855015  1  0.088565  0.000492  0.106108  0.110735  0.000137  0.994012  0.0
H  H35  1  0.19917770  0.63860133  0.75625373  1  0.044735  0.000202  0.100428  0.100078  8e-05  1.003795  0.0
H  H36  1  0.52632607  0.96656168  0.64503477  1  0.109487  0.001187  0.116611  0.087235  0.000234  1.05611  0.001
H  H37  1  0.51124240  0.07783969  0.52394427  1  0.074706  0.000218  0.105031  0.107385  7.7e-05  0.998538  0.0
H  H38  1  0.45263131  0.11618210  0.41346861  1  0.109783  0.000245  0.107535  0.110219  9e-06  1.008053  0.0
H  H39  1  0.19855180  0.17936250  0.58638488  1  0.08855  0.000492  0.10611  0.110721  0.000137  0.994046  0.0
H  H40  1  0.25625468  0.13860449  0.69917541  1  0.044637  0.000202  0.100435  0.100112  8e-05  1.003781  0.0
H  H41  1  0.64503045  0.52632729  0.96656564  1  0.109387  0.001187  0.116593  0.087189  0.000234  1.05618  0.001
H  H42  1  0.52393916  0.51123675  0.07784336  1  0.074808  0.000219  0.104986  0.107255  7.8e-05  0.998372  0.0
H  H43  1  0.41346806  0.45261544  0.11618785  1  0.110226  0.000245  0.107553  0.110328  9e-06  1.00807  0.0
H  H44  1  0.58639883  0.19854395  0.17936310  1  0.088456  0.000492  0.10608  0.110705  0.000137  0.994006  0.0
H  H45  1  0.69918129  0.25625794  0.13860329  1  0.044454  0.000202  0.100464  0.100182  8e-05  1.00379  0.0
H  H46  1  0.96656205  0.64503170  0.52633324  1  0.10942  0.001187  0.11661  0.087214  0.000234  1.056182  0.001
H  H47  1  0.07783765  0.52393950  0.51123531  1  0.074763  0.000218  0.104994  0.107294  7.8e-05  0.998436  0.0
H  H48  1  0.11619404  0.41346743  0.45261404  1  0.110281  0.000245  0.10755  0.110314  9e-06  1.008096  0.0
H  H49  1  0.17936967  0.58639636  0.19854151  1  0.088437  0.000492  0.106084  0.110678  0.000137  0.99397  0.0
H  H50  1  0.13860346  0.69918009  0.25625543  1  0.04462  0.000202  0.100452  0.100166  8e-05  1.00374  0.0
H  H51  1  0.53343271  0.97367206  0.85497112  1  0.109476  0.001187  0.116574  0.087158  0.000234  1.056086  0.001
H  H52  1  0.42215893  0.98876188  0.97605688  1  0.074785  0.000218  0.104983  0.10731  7.8e-05  0.9985  0.0
H  H53  1  0.38381707  0.04738009  0.08652744  1  0.109935  0.000245  0.107569  0.110306  9e-06  1.008124  0.0
H  H54  1  0.32063724  0.30145480  0.91360357  1  0.088527  0.000492  0.106078  0.110713  0.000137  0.993936  0.0
H  H55  1  0.36139461  0.24374345  0.80081800  1  0.044515  0.000202  0.100419  0.100115  8e-05  1.003693  0.0
H  H56  1  0.97367018  0.85496913  0.53343583  1  0.109428  0.001187  0.116609  0.087212  0.000234  1.056179  0.001
H  H57  1  0.98876595  0.97605804  0.42215920  1  0.074924  0.000218  0.104985  0.107278  7.8e-05  0.998466  0.0
H  H58  1  0.04738653  0.08652957  0.38381002  1  0.110237  0.000245  0.107564  0.110368  9e-06  1.008104  0.0
H  H59  1  0.30145979  0.91360625  0.32063086  1  0.088332  0.000492  0.106121  0.110767  0.000137  0.994029  0.0
H  H60  1  0.24374975  0.80082183  0.36139081  1  0.044442  0.000202  0.100471  0.100207  8e-05  1.003753  0.0
H  H61  1  0.85496564  0.53343815  0.97367395  1  0.109419  0.001188  0.116602  0.087213  0.000234  1.056214  0.001
H  H62  1  0.97606143  0.42216299  0.98875547  1  0.074755  0.000218  0.104993  0.107279  7.8e-05  0.998415  0.0
H  H63  1  0.08653645  0.38381217  0.04737229  1  0.10979  0.000245  0.107527  0.110226  9e-06  1.008157  0.0
H  H64  1  0.91361170  0.32063701  0.30144764  1  0.088628  0.000492  0.106144  0.110801  0.000137  0.993982  0.0
H  H65  1  0.80082360  0.36139947  0.24374066  1  0.044751  0.000202  0.100404  0.100115  8e-05  1.003852  0.0
H  H66  1  0.66693510  0.83306360  0.24999997  1  0.075053  8.1e-05  0.10916  0.110261  3.4e-05  0.995623  0.0
H  H67  1  0.24999851  0.66693602  0.83306440  1  0.075106  8.1e-05  0.109102  0.110154  3.4e-05  0.995423  0.0
H  H68  1  0.83306692  0.25000113  0.66693332  1  0.07519  8.1e-05  0.109112  0.110197  3.4e-05  0.995455  0.0
H  H69  1  0.33306621  0.16693659  0.74999842  1  0.075102  8.1e-05  0.109146  0.110246  3.4e-05  0.995633  0.0
H  H70  1  0.74999898  0.33306420  0.16693527  1  0.075122  8.1e-05  0.109105  0.110163  3.4e-05  0.995432  0.0
H  H71  1  0.16693311  0.74999948  0.33306548  1  0.075176  8.1e-05  0.109098  0.110163  3.4e-05  0.995412  0.0
C  C72  1  0.50329126  0.00011939  0.30916136  1  0.500691  0.001471  0.052448  0.046771  0.000331  3.890965  0.001
C  C73  1  0.57566695  0.92733932  0.31258042  1  0.033462  0.002556  -0.002115  0.029877  0.001105  4.019318  0.002
C  C74  1  0.71148334  0.83660198  0.57160486  1  1.58788  -0.005101  0.225401  0.608874  -0.006742  4.141341  -0.003
C  C75  1  0.61201068  0.89624861  0.37984397  1  -0.032782  -0.000902  -0.008572  0.068988  -0.001127  4.020247  -0.001
C  C76  1  0.55738209  0.90118896  0.46143336  1  -0.061938  0.001294  -0.090187  -0.136378  0.000537  3.990083  0.001
C  C77  1  0.58996581  0.87993543  0.52348209  1  -0.118181  -0.00061  -0.083194  -0.089758  -0.001115  3.989815  0.0
C  C78  1  0.67798113  0.85263468  0.50608063  1  -0.011943  0.012329  -0.015468  -0.032001  0.005613  3.963928  0.01
C  C79  1  0.73298923  0.84326170  0.42640686  1  0.003085  -9.5e-05  -0.083895  -0.088586  -0.000796  3.986104  0.0
C  C80  1  0.70035503  0.86526282  0.36386753  1  -0.029001  0.00114  -0.093257  -0.139715  0.000446  3.995173  0.001
C  C81  1  0.30916435  0.50328411  0.00012265  1  0.500831  0.001468  0.05246  0.046765  0.000328  3.890672  0.001
C  C82  1  0.31257734  0.57567127  0.92733396  1  0.033597  0.002559  -0.002104  0.029953  0.001106  4.01912  0.002
C  C83  1  0.57159664  0.71149586  0.83660338  1  1.587551  -0.005098  0.225367  0.608968  -0.006741  4.140939  -0.003
C  C84  1  0.37984492  0.61200662  0.89625198  1  -0.033212  -0.000902  -0.008584  0.068945  -0.001127  4.020398  -0.001
C  C85  1  0.46143276  0.55739318  0.90118698  1  -0.061294  0.001294  -0.090192  -0.13628  0.000537  3.990246  0.001
C  C86  1  0.52347817  0.58997532  0.87993498  1  -0.120255  -0.000609  -0.083158  -0.089962  -0.001115  3.989834  0.0
C  C87  1  0.50607110  0.67799284  0.85263532  1  0.022636  0.012307  -0.015518  -0.032021  0.005613  3.963717  0.01
C  C88  1  0.42640065  0.73299412  0.84326303  1  -0.030067  -7.1e-05  -0.083846  -0.088507  -0.000796  3.985987  0.0
C  C89  1  0.36385938  0.70035829  0.86526381  1  -0.028742  0.001141  -0.093294  -0.139852  0.000446  3.995003  0.001
C  C90  1  0.00012600  0.30916473  0.50328540  1  0.498631  0.001472  0.052443  0.046692  0.00033  3.890723  0.001
C  C91  1  0.92734087  0.31257757  0.57567045  1  0.036194  0.002556  -0.002102  0.029964  0.001105  4.019369  0.002
C  C92  1  0.83659841  0.57160128  0.71149505  1  1.587089  -0.005095  0.225408  0.608921  -0.006739  4.141004  -0.003
C  C93  1  0.89625504  0.37984253  0.61201043  1  -0.033348  -0.000903  -0.008524  0.069007  -0.001127  4.02039  -0.001
C  C94  1  0.90118795  0.46143201  0.55739735  1  -0.06142  0.001294  -0.090123  -0.136187  0.000537  3.990279  0.001
C  C95  1  0.87993175  0.52347888  0.58997815  1  -0.119498  -0.00061  -0.083258  -0.090103  -0.001115  3.989876  0.0
C  C96  1  0.85262916  0.50607298  0.67799795  1  0.022793  0.012306  -0.015444  -0.031889  0.005614  3.963371  0.01
C  C97  1  0.84325848  0.42640054  0.73299734  1  -0.030091  -7.2e-05  -0.083909  -0.088648  -0.000796  3.985949  0.0
C  C98  1  0.86526338  0.36385965  0.70036268  1  -0.028877  0.00114  -0.093303  -0.139802  0.000446  3.994926  0.001
C  C99  1  0.49988516  0.99671137  0.19083400  1  0.500988  0.001472  0.052471  0.046806  0.000331  3.890833  0.001
C  C100  1  0.57266385  0.92433629  0.18741719  1  0.033849  0.002556  -0.002038  0.030006  0.001104  4.019249  0.002
C  C101  1  0.66339354  0.78851394  0.92840111  1  1.587353  -0.005096  0.225379  0.6089  -0.00674  4.141144  -0.003
C  C102  1  0.60375226  0.88799234  0.12015647  1  -0.032631  -0.000902  -0.00856  0.068928  -0.001127  4.020254  -0.001
C  C103  1  0.59881376  0.94261448  0.03856555  1  -0.061869  0.001294  -0.090203  -0.136237  0.000537  3.990143  0.001
C  C104  1  0.62006409  0.91003180  0.97652011  1  -0.119326  -0.000609  -0.083208  -0.089905  -0.001114  3.989796  0.0
C  C105  1  0.64736529  0.82201352  0.99392549  1  -0.01099  0.012329  -0.015466  -0.031943  0.005613  3.963631  0.01
C  C106  1  0.65673665  0.76701076  0.07360006  1  0.002814  -9.4e-05  -0.083883  -0.088659  -0.000795  3.986175  0.0
C  C107  1  0.63473809  0.79964530  0.13613374  1  -0.02879  0.00114  -0.093246  -0.13968  0.000446  3.995187  0.001
C  C108  1  0.99671575  0.19083542  0.49987653  1  0.500765  0.00147  0.052515  0.046899  0.000329  3.890845  0.001
C  C109  1  0.92433001  0.18742139  0.57266246  1  0.034034  0.002558  -0.002107  0.029892  0.001105  4.019232  0.002
C  C110  1  0.78850204  0.92840034  0.66340052  1  1.587256  -0.005098  0.22546  0.609058  -0.006742  4.140939  -0.003
C  C111  1  0.88798619  0.12015732  0.60374894  1  -0.033124  -0.000902  -0.00853  0.069028  -0.001126  4.020561  -0.001
C  C112  1  0.94260262  0.03857166  0.59881262  1  -0.061921  0.001295  -0.090171  -0.136225  0.000537  3.990174  0.001
C  C113  1  0.91001840  0.97652146  0.62006708  1  -0.119777  -0.00061  -0.083218  -0.090138  -0.001115  3.989898  0.0
C  C114  1  0.82200114  0.99393099  0.64736747  1  0.023333  0.012308  -0.015506  -0.031984  0.005615  3.963534  0.01
C  C115  1  0.76699672  0.07359778  0.65674324  1  -0.029331  -7.3e-05  -0.083946  -0.088668  -0.000796  3.985651  0.0
C  C116  1  0.79963608  0.13614373  0.63473956  1  -0.02948  0.001141  -0.09326  -0.139801  0.000447  3.994799  0.001
C  C117  1  0.19083697  0.49987449  0.99671325  1  0.500787  0.001468  0.052519  0.04692  0.000328  3.890813  0.001
C  C118  1  0.18742077  0.57266209  0.92432895  1  0.033622  0.002559  -0.002123  0.029789  0.001106  4.019365  0.002
C  C119  1  0.92839405  0.66340002  0.78851285  1  1.587377  -0.005096  0.225454  0.60901  -0.006739  4.14118  -0.003
C  C120  1  0.12015388  0.60374503  0.88799332  1  -0.032747  -0.000902  -0.008565  0.068916  -0.001126  4.020637  -0.001
C  C121  1  0.03856725  0.59881016  0.94261120  1  -0.06154  0.001294  -0.090127  -0.136147  0.000537  3.990205  0.001
C  C122  1  0.97651426  0.62006667  0.91003351  1  -0.118543  -0.00061  -0.083228  -0.089828  -0.001115  3.989766  0.0
C  C123  1  0.99391890  0.64736881  0.82201557  1  -0.011735  0.01233  -0.015501  -0.032193  0.005614  3.96397  0.01
C  C124  1  0.07359261  0.65673860  0.76701197  1  0.003112  -9.3e-05  -0.083945  -0.088641  -0.000795  3.986354  0.0
C  C125  1  0.13613447  0.63473463  0.79964367  1  -0.029048  0.00114  -0.093189  -0.13955  0.000446  3.995029  0.001
C  C126  1  0.49670941  0.99987860  0.69083944  1  0.500665  0.001471  0.052451  0.046732  0.000331  3.890866  0.001
C  C127  1  0.42433308  0.07266008  0.68742001  1  0.033677  0.002557  -0.002025  0.030051  0.001105  4.019095  0.002
C  C128  1  0.28851733  0.16339782  0.42839560  1  1.587724  -0.0051  0.225356  0.608878  -0.00674  4.141355  -0.003
C  C129  1  0.38799062  0.10375038  0.62015657  1  -0.032802  -0.000902  -0.008585  0.068957  -0.001126  4.020189  -0.001
C  C130  1  0.44261985  0.09881102  0.53856587  1  -0.062002  0.001294  -0.090265  -0.136517  0.000537  3.99006  0.001
C  C131  1  0.41003295  0.12006558  0.47651923  1  -0.118225  -0.00061  -0.083138  -0.089566  -0.001114  3.989883  0.0
C  C132  1  0.32202271  0.14736529  0.49391822  1  -0.011843  0.01233  -0.015433  -0.032132  0.005613  3.964106  0.01
C  C133  1  0.26701080  0.15673890  0.57359352  1  0.003175  -9.4e-05  -0.083952  -0.088634  -0.000796  3.985971  0.0
C  C134  1  0.29964691  0.13473656  0.63613253  1  -0.028855  0.00114  -0.093195  -0.139613  0.000446  3.995084  0.001
C  C135  1  0.69083378  0.49671591  0.99987734  1  0.500888  0.001468  0.052487  0.046831  0.000328  3.890754  0.001
C  C136  1  0.68742015  0.42433016  0.07266513  1  0.033904  0.002559  -0.002118  0.029891  0.001106  4.019278  0.002
C  C137  1  0.42840339  0.28850414  0.16339464  1  1.587549  -0.005098  0.225432  0.609052  -0.006741  4.140828  -0.003
C  C138  1  0.62015447  0.38799299  0.10374813  1  -0.033234  -0.000903  -0.008567  0.068947  -0.001127  4.02049  -0.001
C  C139  1  0.53856600  0.44260603  0.09881310  1  -0.061105  0.001294  -0.090166  -0.13614  0.000537  3.9902  0.001
C  C140  1  0.47652186  0.41002588  0.12006353  1  -0.120151  -0.000609  -0.083195  -0.090003  -0.001115  3.98988  0.0
C  C141  1  0.49392829  0.32200737  0.14736292  1  0.02239  0.012308  -0.015467  -0.032005  0.005614  3.96362  0.01
C  C142  1  0.57359938  0.26700407  0.15673745  1  -0.030143  -7.2e-05  -0.083908  -0.088605  -0.000796  3.986039  0.0
C  C143  1  0.63614002  0.29964192  0.13473601  1  -0.028725  0.001141  -0.09329  -0.139801  0.000446  3.994979  0.001
C  C144  1  0.99987339  0.69083547  0.49671653  1  0.500716  0.001469  0.052407  0.046695  0.000329  3.890712  0.001
C  C145  1  0.07266043  0.68742262  0.42433005  1  0.034125  0.002558  -0.002145  0.029799  0.001105  4.01944  0.002
C  C146  1  0.16340289  0.42839952  0.28850622  1  1.587434  -0.005098  0.225385  0.609002  -0.006741  4.140985  -0.003
C  C147  1  0.10374436  0.62015707  0.38799179  1  -0.032912  -0.000903  -0.008587  0.068974  -0.001128  4.020393  -0.001
C  C148  1  0.09881017  0.53856741  0.44260610  1  -0.061339  0.001294  -0.090156  -0.136266  0.000537  3.990237  0.001
C  C149  1  0.12006765  0.47652073  0.41002460  1  -0.120102  -0.00061  -0.083175  -0.089912  -0.001115  3.989798  0.0
C  C150  1  0.14737023  0.49392602  0.32200561  1  0.022358  0.012306  -0.015479  -0.031977  0.005613  3.963528  0.01
C  C151  1  0.15674091  0.57359846  0.26700517  1  -0.030149  -7.2e-05  -0.083901  -0.088584  -0.000796  3.985952  0.0
C  C152  1  0.13473601  0.63613935  0.29963983  1  -0.028921  0.001141  -0.09326  -0.139755  0.000446  3.994964  0.001
C  C153  1  0.50011741  0.00328902  0.80916422  1  0.500741  0.001472  0.052453  0.046813  0.000331  3.890752  0.001
C  C154  1  0.42733681  0.07566471  0.81258164  1  0.033977  0.002556  -0.002089  0.029992  0.001105  4.019171  0.002
C  C155  1  0.33660649  0.21148787  0.07159816  1  1.587491  -0.005097  0.225349  0.608924  -0.006739  4.141033  -0.003
C  C156  1  0.39624968  0.11200884  0.87984219  1  -0.032759  -0.000902  -0.00857  0.068997  -0.001127  4.020178  -0.001
C  C157  1  0.40118818  0.05738791  0.96143253  1  -0.061864  0.001294  -0.090187  -0.136349  0.000537  3.990081  0.001
C  C158  1  0.37993721  0.08997080  0.02347818  1  -0.119778  -0.000609  -0.083214  -0.089933  -0.001114  3.989862  0.0
C  C159  1  0.35263601  0.17798908  0.00607175  1  -0.010709  0.01233  -0.015421  -0.031873  0.005613  3.963619  0.01
C  C160  1  0.34326402  0.23299144  0.92639767  1  0.002955  -9.4e-05  -0.083884  -0.088645  -0.000795  3.986072  0.0
C  C161  1  0.36526322  0.20035609  0.86386406  1  -0.028746  0.00114  -0.093266  -0.139734  0.000446  3.995151  0.001
C  C162  1  0.00328492  0.80916377  0.50012423  1  0.500801  0.001469  0.052463  0.046728  0.000329  3.890866  0.001
C  C163  1  0.07567066  0.81257841  0.42733695  1  0.034018  0.002559  -0.002083  0.02991  0.001106  4.019196  0.002
C  C164  1  0.21149672  0.07160007  0.33659897  1  1.587579  -0.005099  0.225398  0.608927  -0.006741  4.140976  -0.003
C  C165  1  0.11201257  0.87984309  0.39625161  1  -0.032998  -0.000902  -0.008511  0.069021  -0.001127  4.020548  -0.001
C  C166  1  0.05739487  0.96143037  0.40118830  1  -0.061442  0.001294  -0.090188  -0.13624  0.000537  3.990162  0.001
C  C167  1  0.08997719  0.02347878  0.37993403  1  -0.120064  -0.00061  -0.08321  -0.090058  -0.001115  3.989952  0.0
C  C168  1  0.17799380  0.00607366  0.35263288  1  0.022182  0.012308  -0.015488  -0.03191  0.005614  3.963561  0.01
C  C169  1  0.23300204  0.92640263  0.34325784  1  -0.028987  -7.3e-05  -0.083975  -0.088793  -0.000796  3.98581  0.0
C  C170  1  0.20036140  0.86385950  0.36526184  1  -0.029557  0.001141  -0.093285  -0.139735  0.000446  3.994916  0.001
C  C171  1  0.80916243  0.50012451  0.00328662  1  0.500774  0.001468  0.052486  0.046799  0.000328  3.890805  0.001
C  C172  1  0.81257863  0.42733692  0.07566880  1  0.034123  0.002559  -0.002143  0.029875  0.001106  4.019171  0.002
C  C173  1  0.07160535  0.33659658  0.21148817  1  1.587314  -0.005094  0.22541  0.608992  -0.006738  4.141286  -0.003
C  C174  1  0.87984870  0.39625235  0.11200211  1  -0.032741  -0.000902  -0.008532  0.069023  -0.001126  4.020185  -0.001
C  C175  1  0.96143597  0.40118761  0.05738637  1  -0.061807  0.001294  -0.090184  -0.136312  0.000537  3.990317  0.001
C  C176  1  0.02348451  0.37993194  0.08996474  1  -0.118379  -0.00061  -0.083222  -0.089718  -0.001114  3.98986  0.0
C  C177  1  0.00608241  0.35262898  0.17798291  1  -0.011739  0.01233  -0.015445  -0.032142  0.005614  3.963965  0.01
C  C178  1  0.92640743  0.34326080  0.23298476  1  0.003214  -9.3e-05  -0.083957  -0.088695  -0.000795  3.986338  0.0
C  C179  1  0.86386748  0.36526415  0.20035350  1  -0.029313  0.00114  -0.093208  -0.139681  0.000446  3.994959  0.001
C  C180  1  0.61045331  0.88954886  0.24999933  1  -0.075663  0.001057  -0.067304  -0.136794  0.000421  3.909729  0.001
C  C181  1  0.24999972  0.61044456  0.88955402  1  -0.075774  0.001054  -0.067198  -0.136613  0.00042  3.910077  0.0
C  C182  1  0.88955768  0.24999982  0.61044464  1  -0.07646  0.001055  -0.06727  -0.136803  0.00042  3.910094  0.001
C  C183  1  0.38954927  0.11044911  0.75000110  1  -0.07603  0.001057  -0.06729  -0.136869  0.000421  3.909695  0.001
C  C184  1  0.74999904  0.38955525  0.11044524  1  -0.076353  0.001054  -0.067241  -0.136724  0.000419  3.909989  0.0
C  C185  1  0.11044235  0.74999958  0.38955579  1  -0.076478  0.001055  -0.067198  -0.13661  0.00042  3.910084  0.0
N  N186  1  0.46636214  0.03364193  0.24999758  1  -1.241246  0.06219  -0.311417  -0.212733  0.030632  3.517672  0.043
N  N187  1  0.24999912  0.46635903  0.03363821  1  -1.241351  0.062201  -0.311481  -0.212764  0.030638  3.518026  0.043
N  N188  1  0.03364242  0.24999817  0.46635995  1  -1.241412  0.062194  -0.311421  -0.212678  0.030634  3.517876  0.043
N  N189  1  0.53363852  0.96635787  0.75000235  1  -1.241286  0.062191  -0.311424  -0.212759  0.030633  3.517702  0.043
N  N190  1  0.74999773  0.53364141  0.96636167  1  -1.241414  0.062202  -0.311425  -0.21269  0.030638  3.517923  0.043
N  N191  1  0.96635761  0.75000183  0.53364178  1  -1.241426  0.062194  -0.311399  -0.212572  0.030634  3.517914  0.043
O  O192  1  0.65939527  0.87138952  0.62904779  1  -1.163634  0.099991  -0.306892  -0.56015  0.047218  2.372509  0.082
O  O193  1  0.78883771  0.79099200  0.56462499  1  -1.155846  0.101266  -0.308703  -0.553775  0.047511  2.322214  0.083
O  O194  1  0.62904135  0.65940374  0.87139611  1  -1.163282  0.100003  -0.30695  -0.56024  0.047233  2.372221  0.082
O  O195  1  0.56461873  0.78884378  0.79099586  1  -1.15569  0.101244  -0.308605  -0.55369  0.047501  2.322266  0.083
O  O196  1  0.87138534  0.62904579  0.65940226  1  -1.163254  0.099985  -0.306951  -0.560205  0.047224  2.372305  0.082
O  O197  1  0.79099254  0.56462360  0.78884671  1  -1.155827  0.101268  -0.308678  -0.553714  0.047509  2.322196  0.083
O  O198  1  0.62860545  0.84059771  0.87096150  1  -1.163372  0.099954  -0.306927  -0.560149  0.04721  2.372444  0.082
O  O199  1  0.70900504  0.71115719  0.93538254  1  -1.155441  0.101285  -0.308657  -0.553788  0.047521  2.321959  0.083
O  O200  1  0.84059963  0.87095585  0.62861097  1  -1.163316  0.100005  -0.306946  -0.56026  0.047229  2.37221  0.082
O  O201  1  0.71115590  0.93537597  0.70900717  1  -1.155853  0.101238  -0.308666  -0.553725  0.047496  2.322338  0.083
O  O202  1  0.87094925  0.62861029  0.84060446  1  -1.163605  0.100021  -0.306941  -0.560216  0.047232  2.372419  0.082
O  O203  1  0.93537336  0.70900570  0.71116311  1  -1.15549  0.101252  -0.308696  -0.553733  0.047504  2.322302  0.083
O  O204  1  0.34060668  0.12860866  0.37095178  1  -1.163619  0.099998  -0.30694  -0.560214  0.047221  2.372359  0.082
O  O205  1  0.21116486  0.20900718  0.43537486  1  -1.155768  0.10126  -0.308678  -0.553733  0.047508  2.322246  0.083
O  O206  1  0.37095868  0.34059627  0.12860351  1  -1.163326  0.099999  -0.306958  -0.560225  0.047231  2.372245  0.082
O  O207  1  0.43538130  0.21115562  0.20900192  1  -1.155677  0.101253  -0.308644  -0.553754  0.047506  2.322226  0.083
O  O208  1  0.12861405  0.37095261  0.34060265  1  -1.163267  0.099997  -0.306942  -0.56027  0.04723  2.372208  0.082
O  O209  1  0.20900748  0.43537580  0.21115690  1  -1.155727  0.101247  -0.308653  -0.553719  0.0475  2.322267  0.083
O  O210  1  0.37139522  0.15940269  0.12903815  1  -1.163357  0.099961  -0.306915  -0.560172  0.047212  2.372413  0.082
O  O211  1  0.29099500  0.28884342  0.06461784  1  -1.155476  0.101282  -0.308657  -0.553766  0.047519  2.321959  0.083
O  O212  1  0.15939977  0.12904556  0.37138933  1  -1.163405  0.10002  -0.306922  -0.560202  0.047231  2.372264  0.082
O  O213  1  0.28884286  0.06462444  0.29099338  1  -1.155768  0.101231  -0.308636  -0.553663  0.047495  2.322316  0.083
O  O214  1  0.12905079  0.37138790  0.15939602  1  -1.163522  0.100026  -0.306905  -0.56022  0.047234  2.372414  0.082
O  O215  1  0.06462540  0.29099231  0.28883648  1  -1.155519  0.101241  -0.308674  -0.553707  0.047498  2.322307  0.083
O  O216  1  0.25000271  0.24999822  0.24999893  1  -1.064153  0.600303  -0.556221  -0.914506  0.292653  2.146198  0.483
O  O217  1  0.74999859  0.75000076  0.75000056  1  -1.064165  0.600301  -0.556226  -0.914578  0.292653  2.14626  0.483
