# generated using pymatgen
data_MnH15C16NO5
_symmetry_space_group_name_H-M   'P 1'
_cell_length_a   7.59189094
_cell_length_b   8.13393305
_cell_length_c   13.56222848
_cell_angle_alpha   77.92434316
_cell_angle_beta   75.18502685
_cell_angle_gamma   63.82379674
_symmetry_Int_Tables_number   1
_chemical_formula_structural   MnH15C16NO5
_chemical_formula_sum   'Mn2 H30 C32 N2 O10'
_cell_volume   722.11634299
_cell_formula_units_Z   2
loop_
 _symmetry_equiv_pos_site_id
 _symmetry_equiv_pos_as_xyz
  1  'x, y, z'
loop_
 _atom_site_type_symbol
 _atom_site_label
 _atom_site_symmetry_multiplicity
 _atom_site_fract_x
 _atom_site_fract_y
 _atom_site_fract_z
 _atom_site_occupancy
 _atom_site_hle17_ddec_charge
 _atom_site_hle17_ddec_spin_density
 _atom_site_hle17_ddec_sum_bond_order
 _atom_site_hle17_magmom
 _atom_site_hse06_10hf_ddec_charge
 _atom_site_hse06_10hf_ddec_spin_density
 _atom_site_hse06_10hf_ddec_sum_bond_order
 _atom_site_hse06_10hf_magmom
 _atom_site_hse06_ddec_charge
 _atom_site_hse06_ddec_spin_density
 _atom_site_hse06_ddec_sum_bond_order
 _atom_site_hse06_magmom
 _atom_site_pbe_cm5_charge
 _atom_site_pbe_ddec_charge
 _atom_site_pbe_ddec_spin_density
 _atom_site_pbe_ddec_sum_bond_order
 _atom_site_pbe_magmom
Mn  Mn0  1  0.26034105  0.66789670  0.93499433  1  1.189504  4.805912  1.728339  4.687  1.016702  4.736634  2.229611  4.55  1.078805  4.775663  2.15634  4.609  0.599369  0.968179  4.696668  2.283884  4.493
Mn  Mn1  1  0.73965293  0.33211433  0.06500746  1  1.189538  4.805956  1.728346  4.687  1.01675  4.73662  2.229638  4.55  1.078859  4.775651  2.156358  4.609  0.599398  0.968274  4.696658  2.28382  4.493
H  H2  1  0.90050321  0.65931114  0.06544486  1  0.431793  -7.2e-05  0.864975  0.002  0.401732  0.000675  0.92561  0.003  0.412732  0.000304  0.909804  0.002  0.296034  0.393851  0.001032  0.936868  0.003
H  H3  1  0.09949901  0.34068478  0.93455607  1  0.431818  -7.2e-05  0.864939  0.002  0.40175  0.000675  0.925583  0.003  0.412751  0.000303  0.909777  0.002  0.296046  0.393868  0.001032  0.936844  0.003
H  H4  1  0.95230937  0.82237357  0.08256152  1  0.422548  -1.7e-05  0.887503  0.001  0.38972  0.000787  0.954822  0.002  0.401399  0.000421  0.938005  0.002  0.290427  0.381391  0.001138  0.966763  0.002
H  H5  1  0.04768234  0.17763063  0.91743694  1  0.422523  -1.7e-05  0.887553  0.001  0.389684  0.000788  0.954878  0.002  0.401359  0.000421  0.938067  0.002  0.290431  0.381355  0.001138  0.966819  0.002
H  H6  1  0.30643739  0.11499149  0.75155974  1  0.094076  -0.000205  0.98861  0.0  0.103363  -0.000106  1.052952  0.0  0.106583  -0.00017  1.051352  0.0  0.097167  0.100931  -3.4e-05  1.05428  0.0
H  H7  1  0.69356864  0.88499635  0.24843350  1  0.094094  -0.000203  0.988708  0.0  0.103423  -0.000106  1.052981  0.0  0.106647  -0.00017  1.051371  0.0  0.097198  0.100989  -3.4e-05  1.054312  0.0
H  H8  1  0.37229064  0.13651154  0.56035067  1  0.080411  2e-06  0.970261  0.0  0.090628  1.5e-05  1.035363  0.0  0.092808  9e-06  1.035418  0.0  0.092567  0.089114  2.2e-05  1.035322  0.0
H  H9  1  0.62773488  0.86345435  0.43964170  1  0.080348  7e-06  0.970192  0.0  0.090627  1.4e-05  1.035252  0.0  0.092807  1e-05  1.035306  0.0  0.092564  0.089111  2.2e-05  1.035214  0.0
H  H10  1  0.70021884  0.13196092  0.46125203  1  0.082557  -3.9e-05  0.960773  0.0  0.09416  -2e-05  1.021628  0.0  0.096942  -3.2e-05  1.020341  0.0  0.095199  0.092144  -1e-06  1.02263  0.0
H  H11  1  0.29981094  0.86799255  0.53874120  1  0.082482  -3.9e-05  0.960764  0.0  0.094071  -2e-05  1.021634  0.0  0.096859  -3.1e-05  1.020337  0.0  0.095125  0.092047  -1e-06  1.022662  0.0
H  H12  1  0.94816328  0.12342016  0.55365887  1  0.081344  1.3e-05  0.976573  0.0  0.09249  2e-05  1.041917  0.0  0.094584  1.4e-05  1.042029  0.0  0.093595  0.091041  2.9e-05  1.041826  0.0
H  H13  1  0.05185450  0.87655663  0.44633772  1  0.081351  2e-06  0.976601  0.0  0.092487  2e-05  1.041952  0.0  0.094577  1.4e-05  1.042074  0.0  0.093635  0.091038  2.9e-05  1.041863  0.0
H  H14  1  0.84553379  0.23860035  0.80325550  1  0.124901  -0.000437  0.951979  0.0  0.137929  -0.00039  1.01384  0.0  0.139884  -0.000489  1.014298  0.0  0.108554  0.13654  -0.000269  1.013598  0.001
H  H15  1  0.15445718  0.76140245  0.19674397  1  0.124906  -0.000432  0.951958  0.0  0.137941  -0.00039  1.013827  0.0  0.139909  -0.00049  1.014248  0.0  0.108545  0.136552  -0.000269  1.013583  0.001
H  H16  1  0.02961480  0.15878461  0.69552761  1  0.108919  5.7e-05  0.92968  0.0  0.127612  0.000178  0.986529  0.0  0.129432  0.000117  0.985956  0.0  0.104843  0.126431  0.000245  0.986912  0.0
H  H17  1  0.97037982  0.84122509  0.30447277  1  0.108901  5.7e-05  0.929705  0.0  0.127603  0.000178  0.98655  0.0  0.12943  0.000117  0.985971  0.0  0.104826  0.126423  0.000245  0.98693  0.0
H  H18  1  0.42016107  0.04208340  0.90208350  1  0.123647  -8.7e-05  0.935797  0.0  0.137331  0.000181  0.996686  0.001  0.140089  3e-06  0.995351  0.0  0.109575  0.135277  0.000389  0.997797  0.001
H  H19  1  0.57983004  0.95794014  0.09791428  1  0.123605  -8.3e-05  0.935865  0.0  0.137278  0.000181  0.996797  0.001  0.140033  3e-06  0.995474  0.0  0.109556  0.135226  0.000389  0.997903  0.001
H  H20  1  0.67396207  0.98300423  0.90586088  1  0.117914  -0.000321  0.936486  0.0  0.131577  -0.000267  0.996086  0.0  0.133729  -0.00033  0.995074  0.0  0.105272  0.129919  -0.000191  0.997008  0.0
H  H21  1  0.32603552  0.01701113  0.09413400  1  0.117931  -0.000322  0.936492  0.0  0.131615  -0.000267  0.996105  0.0  0.13377  -0.00033  0.995092  0.0  0.1053  0.12996  -0.000191  0.997021  0.0
H  H22  1  0.35422107  0.58595273  0.71347484  1  0.081606  0.000114  0.942526  0.0  0.089785  0.0005  1.00674  0.0  0.092574  0.000335  1.004292  0.0  0.117369  0.087684  0.000663  1.008631  0.001
H  H23  1  0.64577793  0.41404735  0.28652458  1  0.081748  0.000117  0.942522  0.0  0.089868  0.0005  1.006777  0.0  0.092658  0.000335  1.004329  0.0  0.117407  0.087766  0.000663  1.008667  0.001
H  H24  1  0.62058833  0.52812187  0.55876958  1  0.096614  0.000206  0.964124  0.0  0.107624  0.000247  1.024397  0.0  0.110279  0.00018  1.024268  0.0  0.103237  0.105736  0.000326  1.024613  0.0
H  H25  1  0.37941740  0.47187811  0.44123556  1  0.096664  0.000204  0.963928  0.0  0.10763  0.000248  1.024266  0.0  0.110284  0.000179  1.02414  0.0  0.10325  0.105733  0.000326  1.024511  0.0
H  H26  1  0.96848348  0.63589451  0.72616431  1  0.124776  -4.1e-05  0.957636  0.0  0.132907  -3.4e-05  1.019253  0.0  0.13728  -0.000117  1.016469  0.0  0.109747  0.129647  6.2e-05  1.021554  0.0
H  H27  1  0.03151607  0.36410398  0.27384407  1  0.124763  -4.5e-05  0.957765  0.0  0.132926  -3.4e-05  1.019324  0.0  0.137301  -0.000117  1.016539  0.0  0.109747  0.129663  6.2e-05  1.021627  0.0
H  H28  1  0.69153618  0.68074181  0.87374807  1  0.080279  -5.7e-05  0.944052  0.0  0.088142  0.000461  1.009502  0.0  0.090207  0.000245  1.007633  0.0  0.121942  0.086547  0.000669  1.010959  0.001
H  H29  1  0.30845848  0.31925256  0.12625851  1  0.080255  -5.3e-05  0.944106  0.0  0.088112  0.00046  1.009584  0.0  0.090176  0.000245  1.007716  0.0  0.121946  0.086518  0.000669  1.011042  0.001
H  H30  1  0.11825098  0.55412351  0.55476417  1  0.092619  -5e-06  0.947749  0.0  0.106834  3.6e-05  1.005039  0.0  0.109619  2.1e-05  1.003687  0.0  0.10543  0.104773  5.4e-05  1.006208  0.0
H  H31  1  0.88174898  0.44588599  0.44524582  1  0.092502  -2.2e-05  0.947671  0.0  0.106717  3.7e-05  1.004986  0.0  0.109503  2.1e-05  1.003632  0.0  0.105367  0.104654  5.4e-05  1.006156  0.0
C  C32  1  0.76818684  0.11574087  0.70387050  1  0.078021  0.000607  3.724851  0.001  0.092161  0.00087  3.958445  0.001  0.092539  0.000609  3.983037  0.001  -0.010618  0.091829  0.001207  3.941896  0.001
C  C33  1  0.23181686  0.88425787  0.29612843  1  0.078052  0.000603  3.724928  0.001  0.092185  0.000871  3.9585  0.001  0.092563  0.000606  3.983092  0.001  -0.010593  0.091854  0.001207  3.941947  0.001
C  C34  1  0.58634793  0.11062339  0.76019257  1  0.074285  -6.6e-05  3.687209  0.0  0.08902  0.000536  3.923425  0.001  0.088216  0.000229  3.947984  0.0  -0.007425  0.08935  0.000937  3.907027  0.001
C  C35  1  0.41364861  0.88938231  0.23980211  1  0.07423  -7.9e-05  3.687363  0.0  0.08906  0.000535  3.923531  0.001  0.088258  0.000231  3.948094  0.0  -0.007396  0.08939  0.000937  3.907131  0.001
C  C36  1  0.44587545  0.11970645  0.70706901  1  -0.11842  0.000262  3.740788  0.0  -0.139224  0.000398  3.989464  0.0  -0.141514  0.000238  4.01072  0.0  -0.097211  -0.137556  0.000627  3.975146  0.001
C  C37  1  0.55413404  0.88028282  0.29292285  1  -0.118453  0.000271  3.740872  0.0  -0.139305  0.000398  3.989541  0.0  -0.141593  0.000237  4.010793  0.0  -0.097268  -0.137639  0.000627  3.975223  0.001
C  C38  1  0.48382629  0.12922166  0.60026116  1  -0.082283  -0.00019  3.80975  0.0  -0.096602  6e-05  4.063268  0.0  -0.098904  -4.9e-05  4.085776  0.0  -0.103001  -0.094924  0.000172  4.047756  0.0
C  C39  1  0.51619526  0.87074693  0.39973292  1  -0.082261  -0.000215  3.809551  0.0  -0.096634  6e-05  4.063116  0.0  -0.098939  -4.8e-05  4.085623  0.0  -0.103033  -0.094954  0.000172  4.047606  0.0
C  C40  1  0.66706653  0.12690655  0.54476448  1  -0.092561  0.000318  3.824171  0.0  -0.106964  0.000417  4.07785  0.0  -0.108328  0.000279  4.098563  0.0  -0.105853  -0.105886  0.000664  4.063605  0.0
C  C41  1  0.33295376  0.87306477  0.45523018  1  -0.092349  0.00031  3.824107  0.0  -0.106736  0.000418  4.077776  0.0  -0.108097  0.000277  4.098491  0.0  -0.105692  -0.105662  0.000664  4.06353  0.0
C  C42  1  0.80655818  0.12085914  0.59690094  1  -0.133042  -0.000234  3.777262  0.0  -0.151849  6.7e-05  4.024768  0.0  -0.155175  -3.9e-05  4.047102  0.0  -0.100327  -0.149482  0.000156  4.009492  0.0
C  C43  1  0.19345322  0.87912857  0.40309895  1  -0.133142  -0.000184  3.777448  0.0  -0.151951  6.6e-05  4.024981  0.0  -0.155279  -3.7e-05  4.047316  0.0  -0.10041  -0.149583  0.000156  4.009705  0.0
C  C44  1  0.91678067  0.12547333  0.75470314  1  -0.316212  -0.001114  3.714552  -0.001  -0.356557  -7.5e-05  3.949339  0.0  -0.362153  -0.000484  3.95702  0.0  -0.163741  -0.352697  0.000383  3.943954  0.0
C  C45  1  0.08321770  0.87452809  0.24529768  1  -0.316157  -0.001122  3.714509  -0.001  -0.356546  -7.6e-05  3.949284  0.0  -0.362144  -0.000482  3.956966  0.0  -0.163737  -0.352687  0.000383  3.943898  0.0
C  C46  1  0.03312744  0.95333736  0.81990065  1  0.691785  0.002835  3.839474  0.001  0.643143  0.006014  4.13907  0.004  0.6761  0.004759  4.13387  0.003  0.211743  0.620681  0.007137  4.141128  0.004
C  C47  1  0.96686427  0.04666683  0.18009855  1  0.691543  0.002835  3.83974  0.001  0.642969  0.006014  4.139252  0.004  0.675926  0.004758  4.13406  0.003  0.211676  0.620504  0.007137  4.141314  0.004
C  C48  1  0.54181575  0.08870124  0.87648090  1  -0.317876  0.000988  3.66945  0.001  -0.358284  0.001673  3.908064  0.002  -0.364165  0.001012  3.914951  0.001  -0.160706  -0.354113  0.002363  3.903704  0.002
C  C49  1  0.45818048  0.91131409  0.12351492  1  -0.317786  0.000983  3.669614  0.001  -0.358348  0.001674  3.908431  0.002  -0.364241  0.001012  3.91534  0.001  -0.160701  -0.354181  0.002363  3.904072  0.002
C  C50  1  0.47909725  0.26455478  0.92475074  1  0.730513  0.010245  3.801083  0.011  0.67489  0.017008  4.1094  0.016  0.710177  0.013078  4.101386  0.013  0.233144  0.650202  0.021309  4.113966  0.019
C  C51  1  0.52089329  0.73545486  0.07525095  1  0.730489  0.010236  3.801204  0.011  0.674988  0.017008  4.109395  0.016  0.710276  0.013078  4.101384  0.013  0.233182  0.650299  0.021309  4.113967  0.019
C  C52  1  0.49391370  0.59447991  0.71252880  1  0.119659  0.002713  3.726679  0.003  0.089083  0.004438  3.981061  0.004  0.095348  0.003807  4.000541  0.003  0.043223  0.084795  0.005269  3.96795  0.004
C  C53  1  0.50607458  0.40554083  0.28746969  1  0.119443  0.002611  3.726837  0.003  0.08894  0.004439  3.981183  0.004  0.095204  0.003806  4.000663  0.003  0.043166  0.084651  0.005268  3.968074  0.004
C  C54  1  0.64376856  0.56274968  0.62630857  1  -0.157951  -0.001823  3.717446  -0.001  -0.172605  -0.001047  3.960378  0.0  -0.180649  -0.001687  3.983405  -0.001  -0.081695  -0.167441  -0.000534  3.945172  0.0
C  C55  1  0.35622638  0.43726830  0.37369154  1  -0.157894  -0.001668  3.717317  -0.001  -0.172498  -0.001048  3.960203  0.0  -0.18054  -0.001685  3.983233  -0.001  -0.081669  -0.167339  -0.000534  3.944992  0.0
C  C56  1  0.82315700  0.57317987  0.62826166  1  0.126355  0.002238  3.81363  0.002  0.142036  0.003442  4.043198  0.003  0.146557  0.003035  4.06637  0.003  0.005078  0.139054  0.004243  4.027671  0.003
C  C57  1  0.17683960  0.42682846  0.37173860  1  0.126333  0.002155  3.813447  0.002  0.142015  0.003443  4.043012  0.003  0.14653  0.003034  4.066195  0.003  0.005082  0.139034  0.004243  4.027476  0.003
C  C58  1  0.83694701  0.62064119  0.71890011  1  -0.148842  -0.001872  3.657856  -0.001  -0.168575  -0.001028  3.905189  0.0  -0.175912  -0.001813  3.924124  -0.001  -0.07525  -0.164091  -0.000288  3.893147  0.0
C  C59  1  0.16304823  0.37936712  0.28110034  1  -0.1489  -0.001721  3.65809  -0.001  -0.168632  -0.001029  3.905396  0.0  -0.175972  -0.00181  3.924334  -0.001  -0.075235  -0.164148  -0.000288  3.893351  0.0
C  C60  1  0.67976365  0.64917103  0.80217127  1  0.155725  0.003498  3.685142  0.003  0.123797  0.005549  3.945513  0.005  0.132058  0.00472  3.962262  0.004  0.059334  0.118136  0.006618  3.934428  0.006
C  C61  1  0.32022804  0.35083310  0.19783016  1  0.15592  0.003405  3.684897  0.003  0.123959  0.005549  3.945323  0.005  0.132222  0.004717  3.962071  0.004  0.059358  0.118292  0.006617  3.934245  0.006
C  C62  1  0.99286198  0.53235056  0.54358765  1  -0.102281  0.000615  3.727759  0.0  -0.123541  0.001517  3.980859  0.001  -0.125614  0.001078  3.999703  0.001  -0.079441  -0.122294  0.002306  3.968329  0.001
C  C63  1  0.00714321  0.46765349  0.45642004  1  -0.101959  0.000804  3.727564  0.001  -0.123249  0.001515  3.980674  0.001  -0.125319  0.001086  3.999521  0.001  -0.079277  -0.121997  0.002305  3.968139  0.001
N  N64  1  0.51010795  0.63592264  0.80034377  1  -0.356862  0.025375  3.25392  0.012  -0.287822  0.028244  3.532713  0.011  -0.308478  0.025105  3.54963  0.009  -0.321816  -0.273002  0.031309  3.521022  0.013
N  N65  1  0.48987875  0.36409253  0.19965633  1  -0.356954  0.025474  3.253613  0.012  -0.287955  0.028244  3.532447  0.011  -0.308613  0.025108  3.549362  0.009  -0.321868  -0.27314  0.03131  3.520764  0.013
O  O66  1  0.12417395  0.97409655  0.88148450  1  -0.668805  0.026093  2.034916  0.019  -0.596114  0.031983  2.278766  0.024  -0.627204  0.028079  2.267813  0.02  -0.308875  -0.573392  0.035892  2.285536  0.028
O  O67  1  0.87582483  0.02589798  0.11851634  1  -0.66859  0.026092  2.034834  0.019  -0.595977  0.031978  2.278719  0.024  -0.627075  0.028076  2.26777  0.02  -0.30877  -0.573264  0.035888  2.28549  0.028
O  O68  1  0.04687194  0.79571114  0.81237085  1  -0.632644  0.022741  1.948155  0.017  -0.573651  0.029727  2.186165  0.023  -0.60171  0.025681  2.176938  0.019  -0.302508  -0.552694  0.033841  2.191414  0.027
O  O69  1  0.95311295  0.20429290  0.18763299  1  -0.632691  0.022739  1.948403  0.017  -0.573683  0.029733  2.186364  0.023  -0.601745  0.025683  2.177135  0.019  -0.302569  -0.552728  0.033846  2.191609  0.027
O  O70  1  0.60368532  0.27952446  0.96481268  1  -0.658791  0.035775  2.075746  0.019  -0.59257  0.048514  2.36831  0.027  -0.622621  0.042961  2.351267  0.022  -0.303468  -0.570263  0.053853  2.379493  0.031
O  O71  1  0.39630101  0.72048228  0.03519434  1  -0.658872  0.035774  2.075869  0.019  -0.592633  0.048512  2.368302  0.027  -0.622685  0.042957  2.351259  0.022  -0.303487  -0.570322  0.053851  2.37949  0.031
O  O72  1  0.30270014  0.39097177  0.92159481  1  -0.670385  0.033152  2.041975  0.021  -0.590033  0.041834  2.293604  0.026  -0.621315  0.036978  2.278844  0.022  -0.301927  -0.567079  0.046412  2.30314  0.03
O  O73  1  0.69729112  0.60903923  0.07840809  1  -0.670293  0.03316  2.041835  0.021  -0.589995  0.041834  2.293436  0.026  -0.62127  0.036979  2.278665  0.022  -0.301978  -0.567049  0.046413  2.302979  0.03
O  O74  1  0.01170438  0.69695459  0.05811405  1  -0.853018  0.032651  1.886758  0.021  -0.788368  0.040947  2.103028  0.026  -0.814302  0.036251  2.066221  0.022  -0.579036  -0.768422  0.045325  2.128659  0.03
O  O75  1  0.98829264  0.30304684  0.94188622  1  -0.85302  0.03265  1.886754  0.021  -0.788361  0.040946  2.103076  0.026  -0.814292  0.03625  2.06627  0.022  -0.579067  -0.768422  0.045324  2.128708  0.03
