# generated using pymatgen
data_Ag2P2H36C23N6O5
_symmetry_space_group_name_H-M   'P 1'
_cell_length_a   6.85535631
_cell_length_b   15.92321685
_cell_length_c   26.24190473
_cell_angle_alpha   89.99963631
_cell_angle_beta   89.99987759
_cell_angle_gamma   89.67766646
_symmetry_Int_Tables_number   1
_chemical_formula_structural   Ag2P2H36C23N6O5
_chemical_formula_sum   'Ag8 P8 H144 C92 N24 O20'
_cell_volume   2864.50327716
_cell_formula_units_Z   4
loop_
 _symmetry_equiv_pos_site_id
 _symmetry_equiv_pos_as_xyz
  1  'x, y, z'
loop_
 _atom_site_type_symbol
 _atom_site_label
 _atom_site_symmetry_multiplicity
 _atom_site_fract_x
 _atom_site_fract_y
 _atom_site_fract_z
 _atom_site_occupancy
 _atom_site_pbe_bader_charge
 _atom_site_pbe_bader_spin_density
 _atom_site_pbe_cm5_charge
 _atom_site_pbe_ddec_charge
 _atom_site_pbe_ddec_spin_density
 _atom_site_pbe_ddec_sum_bond_order
 _atom_site_pbe_magmom
Ag  Ag0  1  0.50236151  0.09167232  0.76488661  1  0.405312  0  0.441583  0.175353  0  2.211411  0
Ag  Ag1  1  0.49763019  0.40832711  0.26488646  1  0.405258  0  0.441554  0.17528  0  2.211493  0
Ag  Ag2  1  0.49764306  0.90832862  0.23511400  1  0.405428  0  0.441575  0.175357  0  2.211459  0
Ag  Ag3  1  0.50236263  0.59167079  0.73511301  1  0.405374  0  0.441588  0.175402  0  2.211375  0
Ag  Ag4  1  0.07846714  0.15994789  0.96887560  1  0.414945  0  0.452566  0.235032  0  2.220859  0
Ag  Ag5  1  0.92153316  0.34005254  0.46887815  1  0.414875  0  0.452607  0.235083  0  2.220771  0
Ag  Ag6  1  0.92152856  0.84004873  0.03112350  1  0.41489  0  0.452569  0.235056  0  2.2208  0
Ag  Ag7  1  0.07847439  0.65995027  0.53112094  1  0.414927  0  0.452583  0.235086  0  2.22069  0
P  P8  1  0.22306943  0.03251468  0.72754158  1  1.091079  0  -0.065002  0.222616  0  4.039405  0
P  P9  1  0.77691963  0.46748390  0.22754218  1  1.091054  0  -0.064931  0.222718  0  4.03919  0
P  P10  1  0.77693673  0.96749065  0.27245676  1  1.090718  0  -0.064906  0.22273  0  4.039472  0
P  P11  1  0.22306445  0.53251469  0.77245577  1  1.090827  0  -0.064978  0.22256  0  4.039463  0
P  P12  1  0.78776762  0.19180272  0.92931229  1  1.215279  0  -0.066831  0.255393  0  4.147625  0
P  P13  1  0.21222856  0.30819563  0.42931497  1  1.215247  0  -0.066793  0.25547  0  4.147549  0
P  P14  1  0.21222968  0.80819891  0.07068833  1  1.215503  0  -0.066851  0.255301  0  4.147674  0
P  P15  1  0.78777160  0.69180409  0.57068679  1  1.215282  0  -0.066786  0.255406  0  4.147527  0
H  H16  1  0.68565996  0.18214127  0.59146795  1  0.081988  0  0.101958  0.105224  0  1.021762  0
H  H17  1  0.31437149  0.31787345  0.09145987  1  0.082644  0  0.101952  0.105271  0  1.021727  0
H  H18  1  0.31435947  0.81786898  0.40853190  1  0.082172  0  0.101903  0.105208  0  1.021728  0
H  H19  1  0.68563126  0.68211495  0.90853884  1  0.082569  0  0.10196  0.105244  0  1.021662  0
H  H20  1  0.52856162  0.07147387  0.53925364  1  0.016656  0  0.090614  0.085895  0  1.011091  0
H  H21  1  0.47150510  0.42853483  0.03924808  1  0.016158  0  0.090713  0.086021  0  1.011007  0
H  H22  1  0.47146512  0.92853696  0.46074355  1  0.015795  0  0.090643  0.08589  0  1.010925  0
H  H23  1  0.52850652  0.57145727  0.96075635  1  0.017123  0  0.090668  0.08596  0  1.011008  0
H  H24  1  0.17488334  0.08372405  0.51665017  1  0.041141  0  0.092314  0.087058  0  1.003092  0
H  H25  1  0.82518333  0.41627671  0.01665056  1  0.040803  0  0.092317  0.086984  0  1.002966  0
H  H26  1  0.82514044  0.91628554  0.48334779  1  0.040831  0  0.092339  0.087046  0  1.002783  0
H  H27  1  0.17483124  0.58371662  0.98335729  1  0.040539  0  0.092341  0.087116  0  1.002855  0
H  H28  1  0.98597843  0.21038222  0.54490450  1  0.070706  0  0.093465  0.09092  0  1.044102  0
H  H29  1  0.01406440  0.28960902  0.04490508  1  0.070267  0  0.093602  0.091093  0  1.04391  0
H  H30  1  0.01404082  0.78962175  0.45509535  1  0.070603  0  0.093547  0.091018  0  1.043895  0
H  H31  1  0.98593832  0.71037813  0.95509782  1  0.070328  0  0.093564  0.091042  0  1.043861  0
H  H32  1  0.14421534  0.32068346  0.59469701  1  0.076979  0  0.100783  0.105462  0  1.010473  0
H  H33  1  0.85578917  0.17930820  0.09469262  1  0.076524  0  0.10095  0.105609  0  1.010479  0
H  H34  1  0.85579802  0.67931868  0.40530399  1  0.076399  0  0.100829  0.105515  0  1.010496  0
H  H35  1  0.14420469  0.82067525  0.90530648  1  0.076652  0  0.100854  0.105539  0  1.010526  0
H  H36  1  0.47179551  0.39011321  0.70244278  1  0.036505  0  0.085585  0.083784  0  1.041386  0
H  H37  1  0.52819681  0.10989063  0.20243655  1  0.036818  0  0.085533  0.08372  0  1.041472  0
H  H38  1  0.52820923  0.60989339  0.29755899  1  0.036705  0  0.085578  0.083743  0  1.041465  0
H  H39  1  0.47180027  0.89010347  0.79756407  1  0.036642  0  0.08552  0.083709  0  1.041512  0
H  H40  1  0.25418976  0.35958397  0.67179802  1  0.026347  0  0.08969  0.102743  0  1.000275  0
H  H41  1  0.74580881  0.14042578  0.17179650  1  0.026079  0  0.089703  0.102785  0  1.000249  0
H  H42  1  0.74581904  0.64041192  0.32820336  1  0.026255  0  0.089709  0.10274  0  1.000325  0
H  H43  1  0.25418134  0.85958093  0.82820602  1  0.026146  0  0.089709  0.102776  0  1.000328  0
H  H44  1  0.41215526  0.43183566  0.58830008  1  0.082723  0  0.100465  0.135863  0  1.009218  0
H  H45  1  0.58785687  0.06816542  0.08829741  1  0.082466  0  0.100479  0.135945  0  1.009345  0
H  H46  1  0.58784784  0.56816467  0.41170130  1  0.082402  0  0.100467  0.135896  0  1.00931  0
H  H47  1  0.41213002  0.93182938  0.91170397  1  0.082408  0  0.100487  0.135945  0  1.009236  0
H  H48  1  0.59044643  0.45622611  0.63380621  1  0.01862  0  0.089944  0.096439  0  1.024268  0
H  H49  1  0.40955671  0.04377960  0.13380145  1  0.018673  0  0.089991  0.09651  0  1.02421  0
H  H50  1  0.40956118  0.54377921  0.36619289  1  0.018627  0  0.08995  0.096469  0  1.024288  0
H  H51  1  0.59042727  0.95621523  0.86619803  1  0.018242  0  0.089981  0.096572  0  1.024115  0
H  H52  1  0.98490009  0.02998116  0.79719295  1  0.06248  0  0.1083  0.11376  0  0.976799  0
H  H53  1  0.01509712  0.47001601  0.29719014  1  0.062579  0  0.108297  0.11376  0  0.976806  0
H  H54  1  0.01510614  0.97002668  0.20280576  1  0.063244  0  0.10826  0.11371  0  0.976848  0
H  H55  1  0.98489134  0.52998255  0.70280857  1  0.062498  0  0.108279  0.113764  0  0.976779  0
H  H56  1  0.00038794  0.13047031  0.76674934  1  0.084635  0  0.115001  0.131505  0  0.987421  0
H  H57  1  0.99960666  0.36952908  0.26674793  1  0.084627  0  0.114997  0.131507  0  0.987393  0
H  H58  1  0.99961388  0.86953631  0.23324746  1  0.084744  0  0.114954  0.131569  0  0.987196  0
H  H59  1  0.00038029  0.63046760  0.73325040  1  0.084656  0  0.114977  0.131526  0  0.987328  0
H  H60  1  0.26231672  0.90084660  0.68079210  1  0.063895  0  0.10466  0.108443  0  1.001867  0
H  H61  1  0.73767035  0.59914974  0.18078846  1  0.063623  0  0.104634  0.108442  0  1.001838  0
H  H62  1  0.73768938  0.09915684  0.31920776  1  0.064185  0  0.10464  0.108452  0  1.001807  0
H  H63  1  0.26232097  0.40084692  0.81920682  1  0.064158  0  0.104654  0.108474  0  1.001812  0
H  H64  1  0.15426969  0.88015560  0.74057022  1  0.139507  0  0.108213  0.12812  0  1.023424  0
H  H65  1  0.84571410  0.61984455  0.24056607  1  0.139628  0  0.108288  0.128231  0  1.023311  0
H  H66  1  0.84573505  0.11985100  0.25942925  1  0.139282  0  0.108201  0.128104  0  1.023264  0
H  H67  1  0.15427292  0.38015465  0.75943036  1  0.139496  0  0.108234  0.128145  0  1.023374  0
H  H68  1  0.17746878  0.15189884  0.67075317  1  0.082529  0  0.112489  0.129908  0  1.010606  0
H  H69  1  0.82252517  0.34810217  0.17075346  1  0.082508  0  0.112492  0.129845  0  1.010664  0
H  H70  1  0.82253595  0.84810776  0.32924325  1  0.082647  0  0.112468  0.129906  0  1.010601  0
H  H71  1  0.17746759  0.65189384  0.82924525  1  0.082624  0  0.112463  0.129866  0  1.010601  0
H  H72  1  0.27799980  0.06492450  0.63722031  1  0.04394  0  0.101429  0.103144  0  1.012677  0
H  H73  1  0.72198998  0.43507436  0.13721917  1  0.044071  0  0.101406  0.103097  0  1.012656  0
H  H74  1  0.72200335  0.93507771  0.36277840  1  0.044085  0  0.101461  0.103159  0  1.012655  0
H  H75  1  0.27800278  0.56492165  0.86277840  1  0.043911  0  0.101439  0.103131  0  1.012621  0
H  H76  1  0.81254875  0.91628961  0.75432202  1  0.096132  0  0.121158  0.094967  0  0.950989  0
H  H77  1  0.18744072  0.58370910  0.25431837  1  0.096204  0  0.121069  0.094865  0  0.951092  0
H  H78  1  0.18745591  0.08371448  0.24567783  1  0.096173  0  0.121266  0.095072  0  0.951121  0
H  H79  1  0.81254916  0.41628819  0.74567997  1  0.096174  0  0.121193  0.094991  0  0.951097  0
H  H80  1  0.66348935  0.94054061  0.70025734  1  0.079923  0  0.111282  0.06745  0  1.00764  0
H  H81  1  0.33650062  0.55946053  0.20025332  1  0.079889  0  0.111304  0.067492  0  1.007654  0
H  H82  1  0.33651675  0.05946284  0.29974175  1  0.07988  0  0.111269  0.067453  0  1.00767  0
H  H83  1  0.66349215  0.44053611  0.79974501  1  0.079836  0  0.111277  0.067453  0  1.007683  0
H  H84  1  0.06838878  0.95140162  0.61128414  1  0.027105  0  0.112297  0.073889  0  0.970041  0
H  H85  1  0.93160622  0.54859725  0.11128250  1  0.026968  0  0.112296  0.073843  0  0.970166  0
H  H86  1  0.93161870  0.04859868  0.38871496  1  0.027185  0  0.112306  0.073881  0  0.970054  0
H  H87  1  0.06838805  0.45140064  0.88871506  1  0.027061  0  0.112318  0.073853  0  0.970151  0
H  H88  1  0.80946982  0.96258458  0.61910537  1  0.02858  0  0.113386  0.070677  0  0.994195  0
H  H89  1  0.19052226  0.53741611  0.11910266  1  0.028592  0  0.113385  0.070677  0  0.994111  0
H  H90  1  0.19053766  0.03741571  0.38089410  1  0.028527  0  0.113407  0.070716  0  0.994064  0
H  H91  1  0.80947344  0.46258050  0.88089567  1  0.028588  0  0.113382  0.070601  0  0.994152  0
H  H92  1  0.67743160  0.08075240  0.66245881  1  0.050603  0  0.110202  0.067169  0  1.006266  0
H  H93  1  0.32255950  0.41924872  0.16245604  1  0.050612  0  0.110169  0.067122  0  1.006254  0
H  H94  1  0.32257151  0.91924856  0.33753914  1  0.050614  0  0.110148  0.067091  0  1.006152  0
H  H95  1  0.67743041  0.58074983  0.83754343  1  0.050551  0  0.110185  0.067174  0  1.006182  0
H  H96  1  0.83431898  0.15731218  0.68936863  1  0.12942  0  0.125034  0.110691  0  0.970837  0
H  H97  1  0.16567925  0.34269049  0.18936625  1  0.129413  0  0.125055  0.110725  0  0.970874  0
H  H98  1  0.16568273  0.84269068  0.31062856  1  0.129451  0  0.12507  0.110741  0  0.970844  0
H  H99  1  0.83431504  0.65730802  0.81063208  1  0.129459  0  0.125073  0.110729  0  0.970898  0
H  H100  1  0.66550589  0.29943244  0.64301391  1  0.06184  0  0.098428  0.075805  0  0.971266  0
H  H101  1  0.33449712  0.20057130  0.14300438  1  0.061975  0  0.098454  0.075899  0  0.971218  0
H  H102  1  0.33450174  0.70057351  0.35698671  1  0.06194  0  0.098456  0.075851  0  0.971228  0
H  H103  1  0.66549561  0.79942346  0.85699357  1  0.062049  0  0.098438  0.075886  0  0.9712  0
H  H104  1  0.85890219  0.15396008  0.84118993  1  0.055368  0  0.11086  0.115122  0  1.00068  0
H  H105  1  0.14108879  0.34603607  0.34119174  1  0.055356  0  0.110866  0.115073  0  1.000715  0
H  H106  1  0.14109208  0.84603781  0.15881145  1  0.055308  0  0.110857  0.115067  0  1.00065  0
H  H107  1  0.85891439  0.65396740  0.65880926  1  0.055305  0  0.110849  0.115019  0  1.000692  0
H  H108  1  0.74353002  0.07054221  0.87510306  1  0.099021  0  0.109649  0.120305  0  1.023628  0
H  H109  1  0.25646218  0.42945484  0.37510371  1  0.099087  0  0.109639  0.120257  0  1.023723  0
H  H110  1  0.25646288  0.92945883  0.12489870  1  0.099011  0  0.109658  0.120272  0  1.02365  0
H  H111  1  0.74354380  0.57054421  0.62489767  1  0.099098  0  0.109627  0.120205  0  1.023674  0
H  H112  1  0.54314962  0.10361447  0.96813402  1  0.107675  0  0.117854  0.14182  0  0.977309  0
H  H113  1  0.45685800  0.39638653  0.46813279  1  0.107671  0  0.117877  0.141856  0  0.977287  0
H  H114  1  0.45684624  0.89638780  0.03186774  1  0.107619  0  0.117838  0.141792  0  0.977284  0
H  H115  1  0.54315102  0.60361689  0.53186782  1  0.107635  0  0.117864  0.141839  0  0.977385  0
H  H116  1  0.53735928  0.20605058  0.99540394  1  0.116039  0  0.110785  0.122697  0  1.022649  0
H  H117  1  0.46264519  0.29395017  0.49540426  1  0.11605  0  0.110746  0.122653  0  1.022747  0
H  H118  1  0.46263657  0.79395169  0.00459629  1  0.116112  0  0.110768  0.122668  0  1.022649  0
H  H119  1  0.53736088  0.70605202  0.50459521  1  0.11603  0  0.110793  0.122706  0  1.022629  0
H  H120  1  0.74031233  0.34290852  0.93935814  1  0.065797  0  0.103553  0.104425  0  1.020067  0
H  H121  1  0.25969403  0.15709154  0.43936331  1  0.065687  0  0.103564  0.104492  0  1.01998  0
H  H122  1  0.25968790  0.65709372  0.06064285  1  0.065823  0  0.103523  0.104394  0  1.020113  0
H  H123  1  0.74030620  0.84291070  0.56063846  1  0.065711  0  0.103588  0.104475  0  1.020023  0
H  H124  1  0.85582199  0.31824051  0.88005416  1  0.095167  0  0.107117  0.103893  0  1.044154  0
H  H125  1  0.14416871  0.18175650  0.38006043  1  0.094853  0  0.107049  0.103745  0  1.044156  0
H  H126  1  0.14417383  0.68176051  0.11994646  1  0.095124  0  0.107136  0.103875  0  1.044074  0
H  H127  1  0.85583149  0.81824448  0.61994210  1  0.095227  0  0.107078  0.103779  0  1.044203  0
H  H128  1  0.25248952  0.15887907  0.85700905  1  0.092884  0  0.116016  0.077978  0  0.989178  0
H  H129  1  0.74751011  0.34111748  0.35700560  1  0.093082  0  0.115995  0.077939  0  0.989124  0
H  H130  1  0.74750478  0.84111945  0.14299194  1  0.09291  0  0.116015  0.077997  0  0.98918  0
H  H131  1  0.25249729  0.65888030  0.64299349  1  0.093156  0  0.11601  0.077968  0  0.989177  0
H  H132  1  0.38657225  0.07728805  0.88838609  1  0.082343  0  0.121493  0.101251  0  0.997451  0
H  H133  1  0.61342717  0.42271006  0.38838391  1  0.082371  0  0.121501  0.101218  0  0.997551  0
H  H134  1  0.61342501  0.92271232  0.11161529  1  0.082338  0  0.121498  0.101264  0  0.99743  0
H  H135  1  0.38658326  0.57729147  0.61161632  1  0.082386  0  0.121487  0.101243  0  0.997523  0
H  H136  1  0.67343025  0.27062157  0.80946987  1  0.094948  0  0.121307  0.100245  0  0.968653  0
H  H137  1  0.32655670  0.22937744  0.30947166  1  0.095022  0  0.121323  0.10022  0  0.96862  0
H  H138  1  0.32656702  0.72937880  0.19053189  1  0.095218  0  0.121333  0.100267  0  0.968713  0
H  H139  1  0.67344058  0.77062356  0.69053010  1  0.094978  0  0.121364  0.100299  0  0.968636  0
H  H140  1  0.41327554  0.26752191  0.81243619  1  0.108525  0  0.116864  0.087084  0  1.025053  0
H  H141  1  0.58670989  0.23247584  0.31243631  1  0.108388  0  0.11682  0.087096  0  1.024978  0
H  H142  1  0.58672174  0.73247910  0.18756519  1  0.10849  0  0.116848  0.087077  0  1.025009  0
H  H143  1  0.41328882  0.76752390  0.68756431  1  0.108584  0  0.116859  0.087177  0  1.02499  0
H  H144  1  0.39330763  0.32094868  0.94790987  1  0.06142  0  0.117178  0.084407  0  0.974644  0
H  H145  1  0.60668842  0.17905011  0.44791018  1  0.06151  0  0.117184  0.084431  0  0.974772  0
H  H146  1  0.60668526  0.67905173  0.05209113  1  0.061502  0  0.117171  0.084419  0  0.974644  0
H  H147  1  0.39331178  0.82095087  0.55209081  1  0.061569  0  0.117175  0.084446  0  0.97464  0
H  H148  1  0.25116494  0.29870748  0.89205692  1  0.047914  0  0.113009  0.070468  0  0.995587  0
H  H149  1  0.74883003  0.20128938  0.39205669  1  0.047935  0  0.113039  0.070569  0  0.995513  0
H  H150  1  0.74882942  0.70129355  0.10794332  1  0.047953  0  0.113039  0.070541  0  0.995601  0
H  H151  1  0.25117155  0.79870908  0.60794431  1  0.048103  0  0.113031  0.070552  0  0.995546  0
H  H152  1  0.01822278  0.99144524  0.94776079  1  0.641878  0  0.272463  0.35474  0  1.000396  0
H  H153  1  0.98173592  0.50855236  0.44775662  1  0.642139  0  0.27253  0.354848  0  1.00023  0
H  H154  1  0.98175249  0.00855154  0.05224097  1  0.642017  0  0.272569  0.354912  0  1.00014  0
H  H155  1  0.01826139  0.49144990  0.55224133  1  0.642106  0  0.272555  0.354938  0  1.000102  0
H  H156  1  0.19495385  0.00138248  0.98511937  1  0.638338  0  0.272051  0.357428  0  0.999548  0
H  H157  1  0.80502881  0.49861791  0.48512174  1  0.638169  0  0.272061  0.357493  0  0.999451  0
H  H158  1  0.80501844  0.99861180  0.01488430  1  0.638298  0  0.272029  0.357389  0  0.999632  0
H  H159  1  0.19496849  0.50138372  0.51487621  1  0.638141  0  0.272042  0.357525  0  0.999409  0
C  C160  1  0.42651449  0.25861921  0.59791710  1  0.032356  0  -0.001984  0.097939  0  3.893687  0
C  C161  1  0.57350483  0.24138109  0.09791337  1  0.034285  0  -0.001976  0.098087  0  3.893118  0
C  C162  1  0.57351214  0.74138785  0.40208504  1  0.033583  0  -0.001938  0.097983  0  3.893291  0
C  C163  1  0.42649208  0.75860673  0.90208686  1  0.033639  0  -0.00191  0.097976  0  3.893376  0
C  C164  1  0.53212320  0.18811547  0.58116309  1  -0.119718  0  -0.092507  -0.13332  0  3.976083  0
C  C165  1  0.46792558  0.31188980  0.08115686  1  -0.120067  0  -0.092525  -0.133384  0  3.976004  0
C  C166  1  0.46789036  0.81189358  0.41883715  1  -0.119926  0  -0.092428  -0.13326  0  3.976094  0
C  C167  1  0.53207878  0.68810361  0.91884300  1  -0.120109  0  -0.092543  -0.133292  0  3.975964  0
C  C168  1  0.44361941  0.12610724  0.55154039  1  -0.092045  0  -0.10792  -0.112026  0  4.080931  0
C  C169  1  0.55641364  0.37390096  0.05153576  1  -0.092146  0  -0.108093  -0.112297  0  4.0809  0
C  C170  1  0.55639987  0.87389799  0.44845604  1  -0.091387  0  -0.108064  -0.112106  0  4.081204  0
C  C171  1  0.44359654  0.62609178  0.94846600  1  -0.092875  0  -0.107998  -0.112149  0  4.080614  0
C  C172  1  0.24634620  0.13320082  0.53844534  1  -0.074557  0  -0.106281  -0.107098  0  4.069816  0
C  C173  1  0.75370265  0.36679484  0.03844102  1  -0.073956  0  -0.106245  -0.106855  0  4.069713  0
C  C174  1  0.75365400  0.86680017  0.46155528  1  -0.074316  0  -0.106279  -0.107068  0  4.069758  0
C  C175  1  0.24630609  0.63319854  0.96156493  1  -0.074298  0  -0.10634  -0.107266  0  4.069926  0
C  C176  1  0.14010786  0.20357313  0.55433927  1  -0.079558  0  -0.0975  -0.09333  0  4.055408  0
C  C177  1  0.85993237  0.29643185  0.05434089  1  -0.079799  0  -0.097657  -0.093542  0  4.055651  0
C  C178  1  0.85990422  0.79643529  0.44565601  1  -0.079787  0  -0.097516  -0.093394  0  4.055598  0
C  C179  1  0.14007170  0.70355152  0.94566087  1  -0.080043  0  -0.0976  -0.093364  0  4.055685  0
C  C180  1  0.23010775  0.26586061  0.58338504  1  -0.006534  0  -0.088851  -0.12705  0  3.935155  0
C  C181  1  0.76992479  0.23413848  0.08338009  1  -0.006135  0  -0.088978  -0.127316  0  3.934867  0
C  C182  1  0.76991305  0.73414649  0.41661901  1  -0.005895  0  -0.088944  -0.127146  0  3.935456  0
C  C183  1  0.23007646  0.76584805  0.91662129  1  -0.005739  0  -0.088876  -0.127108  0  3.93492  0
C  C184  1  0.39574818  0.26210870  0.71586243  1  1.573097  0  0.181832  0.605951  0  4.205922  0
C  C185  1  0.60422939  0.23789323  0.21586403  1  1.572148  0  0.181894  0.605894  0  4.206039  0
C  C186  1  0.60426367  0.73789156  0.28413857  1  1.573061  0  0.18198  0.606091  0  4.205847  0
C  C187  1  0.39575318  0.76210349  0.78413925  1  1.573371  0  0.182  0.606184  0  4.205824  0
C  C188  1  0.40347058  0.33868597  0.68065446  1  -0.055412  0  -0.170124  -0.326071  0  3.920354  0
C  C189  1  0.59652496  0.16132246  0.18065371  1  -0.05544  0  -0.170003  -0.325906  0  3.920287  0
C  C190  1  0.59654127  0.66131430  0.31934654  1  -0.055548  0  -0.170092  -0.325928  0  3.920377  0
C  C191  1  0.40346059  0.83867675  0.81934996  1  -0.05533  0  -0.170076  -0.326066  0  3.920587  0
C  C192  1  0.70290524  0.41244404  0.56311437  1  1.544939  0  0.205333  0.623763  0  4.14393  0
C  C193  1  0.29710841  0.08755226  0.06310873  1  1.544824  0  0.205385  0.624008  0  4.143861  0
C  C194  1  0.29709505  0.58756008  0.43688511  1  1.545062  0  0.205423  0.623887  0  4.143925  0
C  C195  1  0.70288858  0.91243870  0.93689150  1  1.544933  0  0.20536  0.623958  0  4.143904  0
C  C196  1  0.55055469  0.40892698  0.60499514  1  -0.052845  0  -0.168077  -0.335097  0  3.902366  0
C  C197  1  0.44945598  0.09107896  0.10498827  1  -0.052723  0  -0.168116  -0.335337  0  3.902376  0
C  C198  1  0.44945581  0.59107706  0.39500433  1  -0.052633  0  -0.168074  -0.335103  0  3.902343  0
C  C199  1  0.55053379  0.90891456  0.89501197  1  -0.052134  0  -0.168092  -0.335397  0  3.90199  0
C  C200  1  0.99235781  0.06234874  0.76021272  1  -0.166578  0  -0.079423  -0.223856  0  3.872122  0
C  C201  1  0.00763832  0.43765134  0.26021004  1  -0.166617  0  -0.07945  -0.223868  0  3.871986  0
C  C202  1  0.00764547  0.93765787  0.23978561  1  -0.167543  0  -0.079395  -0.223919  0  3.872008  0
C  C203  1  0.99234722  0.56234724  0.73978752  1  -0.166606  0  -0.079338  -0.223748  0  3.871905  0
C  C204  1  0.15246163  0.92386457  0.70814185  1  -0.156349  0  -0.081045  -0.219716  0  3.866783  0
C  C205  1  0.84752972  0.57613586  0.20813787  1  -0.156141  0  -0.081058  -0.219758  0  3.866558  0
C  C206  1  0.84754598  0.07614075  0.29185801  1  -0.156216  0  -0.081069  -0.219761  0  3.866637  0
C  C207  1  0.15246018  0.42386206  0.79185818  1  -0.156419  0  -0.081107  -0.219825  0  3.866813  0
C  C208  1  0.16722228  0.08384269  0.66530744  1  -0.068272  0  -0.079518  -0.210639  0  3.872406  0
C  C209  1  0.83277746  0.41615519  0.16530631  1  -0.06849  0  -0.079485  -0.210486  0  3.872332  0
C  C210  1  0.83278377  0.91615887  0.33468899  1  -0.068175  0  -0.079586  -0.210631  0  3.872599  0
C  C211  1  0.16721823  0.58384143  0.83469126  1  -0.068205  0  -0.079576  -0.210557  0  3.8723  0
C  C212  1  0.80547461  0.95190080  0.71845565  1  0.506044  0  0.019051  0.001108  0  3.898397  0
C  C213  1  0.19451225  0.54809892  0.21845328  1  0.506197  0  0.019043  0.001113  0  3.898442  0
C  C214  1  0.19453007  0.04810391  0.28154306  1  0.506204  0  0.018999  0.000876  0  3.898791  0
C  C215  1  0.80548054  0.45189835  0.78154543  1  0.506185  0  0.018984  0.000973  0  3.898403  0
C  C216  1  0.95216112  0.97291998  0.63722786  1  0.614277  0  0.020047  0.002028  0  3.958529  0
C  C217  1  0.04782792  0.52708181  0.13722488  1  0.614868  0  0.02004  0.002075  0  3.958747  0
C  C218  1  0.04784498  0.02708346  0.36277009  1  0.614275  0  0.020021  0.002055  0  3.958512  0
C  C219  1  0.95217071  0.47291542  0.86277307  1  0.614801  0  0.02007  0.002249  0  3.958725  0
C  C220  1  0.81952727  0.09030794  0.68088539  1  0.54197  0  0.013812  -0.000151  0  3.876302  0
C  C221  1  0.18046062  0.40968798  0.18088159  1  0.541983  0  0.01386  -2.1e-05  0  3.876127  0
C  C222  1  0.18047442  0.90969428  0.31911218  1  0.541837  0  0.013796  -4.2e-05  0  3.876053  0
C  C223  1  0.81953216  0.59030866  0.81911598  1  0.541992  0  0.013794  -0.000121  0  3.876245  0
C  C224  1  0.52188807  0.32419016  0.63163248  1  0.032245  0  -0.084346  0.028723  0  3.864283  0
C  C225  1  0.47812251  0.17581991  0.13162716  1  0.030601  0  -0.084371  0.028628  0  3.864007  0
C  C226  1  0.47812682  0.67581447  0.36836737  1  0.031478  0  -0.084398  0.028586  0  3.864077  0
C  C227  1  0.52187161  0.82417233  0.86837307  1  0.031015  0  -0.08435  0.028703  0  3.864311  0
C  C228  1  0.74091980  0.13837541  0.86778791  1  -0.169177  0  -0.082219  -0.227946  0  3.854019  0
C  C229  1  0.25907540  0.36162232  0.36778883  1  -0.16916  0  -0.08227  -0.227897  0  3.853973  0
C  C230  1  0.25907451  0.86162373  0.13221309  1  -0.169151  0  -0.082202  -0.227799  0  3.853866  0
C  C231  1  0.74093215  0.63838049  0.63221141  1  -0.169303  0  -0.08218  -0.227687  0  3.85369  0
C  C232  1  0.54918348  0.17103242  0.95952285  1  -0.187968  0  -0.079649  -0.217289  0  3.808386  0
C  C233  1  0.45081978  0.32896682  0.45952304  1  -0.187783  0  -0.079645  -0.217358  0  3.808336  0
C  C234  1  0.45081094  0.82897049  0.04047853  1  -0.188207  0  -0.079603  -0.217225  0  3.808375  0
C  C235  1  0.54918330  0.67103288  0.54047720  1  -0.187881  0  -0.079687  -0.217395  0  3.808612  0
C  C236  1  0.73887306  0.30011992  0.90651801  1  -0.172726  0  -0.083517  -0.229171  0  3.913723  0
C  C237  1  0.26112336  0.19988054  0.40652262  1  -0.172622  0  -0.083486  -0.229106  0  3.91363  0
C  C238  1  0.26112858  0.69988042  0.09348185  1  -0.172716  0  -0.083506  -0.229079  0  3.913628  0
C  C239  1  0.73887689  0.80012232  0.59347914  1  -0.172749  0  -0.083512  -0.229118  0  3.913641  0
C  C240  1  0.38631265  0.14405742  0.87834972  1  0.54161  0  0.013931  -0.013733  0  3.859757  0
C  C241  1  0.61368834  0.35594204  0.37835162  1  0.541283  0  0.013917  -0.013721  0  3.859799  0
C  C242  1  0.61368608  0.85594357  0.12165127  1  0.541568  0  0.013903  -0.013811  0  3.85971  0
C  C243  1  0.38631474  0.64405766  0.62164976  1  0.541349  0  0.013909  -0.013732  0  3.859765  0
C  C244  1  0.54835992  0.25517702  0.83370331  1  0.54711  0  0.011653  -0.012013  0  3.865386  0
C  C245  1  0.45163273  0.24482422  0.33370459  1  0.54722  0  0.011678  -0.011951  0  3.865305  0
C  C246  1  0.45163601  0.74482776  0.16629883  1  0.54675  0  0.011715  -0.011982  0  3.865418  0
C  C247  1  0.54836890  0.75517612  0.66629679  1  0.547026  0  0.011603  -0.01219  0  3.865393  0
C  C248  1  0.38768743  0.28430465  0.91244263  1  0.576553  0  0.019499  -0.000958  0  3.919231  0
C  C249  1  0.61230590  0.21569138  0.41244317  1  0.576412  0  0.019384  -0.001245  0  3.919502  0
C  C250  1  0.61230690  0.71569512  0.08755952  1  0.576526  0  0.019388  -0.001262  0  3.919495  0
C  C251  1  0.38769574  0.78430896  0.58755935  1  0.576243  0  0.019421  -0.001228  0  3.919409  0
N  N252  1  0.81584000  0.04319700  0.73013343  1  -0.953318  0  -0.344491  -0.11655  0  3.44064  0
N  N253  1  0.18415773  0.45679960  0.23012830  1  -0.953206  0  -0.344581  -0.116744  0  3.440584  0
N  N254  1  0.18416328  0.95680961  0.26986452  1  -0.953399  0  -0.344526  -0.116565  0  3.440599  0
N  N255  1  0.81583647  0.54319577  0.76986812  1  -0.953315  0  -0.344582  -0.116736  0  3.440753  0
N  N256  1  0.95873389  0.92190061  0.68398523  1  -0.983197  0  -0.339108  -0.151008  0  3.428283  0
N  N257  1  0.04125467  0.57809757  0.18398053  1  -0.983722  0  -0.339044  -0.151  0  3.428501  0
N  N258  1  0.04127214  0.07810033  0.31601577  1  -0.983522  0  -0.3391  -0.15093  0  3.428539  0
N  N259  1  0.95874106  0.42190030  0.81601856  1  -0.983802  0  -0.339031  -0.150871  0  3.428328  0
N  N260  1  0.97283942  0.06277185  0.64616269  1  -1.000565  0  -0.34279  -0.149955  0  3.46754  0
N  N261  1  0.02715335  0.43723192  0.14616115  1  -1.000773  0  -0.34281  -0.149973  0  3.467586  0
N  N262  1  0.02716371  0.93722973  0.35383488  1  -1.000384  0  -0.342676  -0.150037  0  3.46764  0
N  N263  1  0.97284090  0.56276533  0.85383756  1  -1.000671  0  -0.342711  -0.150036  0  3.467604  0
N  N264  1  0.55280038  0.16320647  0.84445690  1  -0.973707  0  -0.342919  -0.089044  0  3.445483  0
N  N265  1  0.44719359  0.33679276  0.34445706  1  -0.973647  0  -0.342866  -0.089009  0  3.445416  0
N  N266  1  0.44719832  0.83679327  0.15554410  1  -0.973819  0  -0.342928  -0.089037  0  3.44545  0
N  N267  1  0.55280512  0.66320697  0.65554318  1  -0.973683  0  -0.342874  -0.089017  0  3.445438  0
N  N268  1  0.38403994  0.19393398  0.92584694  1  -0.969305  0  -0.345337  -0.103486  0  3.462186  0
N  N269  1  0.61595915  0.30606313  0.42584636  1  -0.969125  0  -0.345278  -0.103334  0  3.462082  0
N  N270  1  0.61595584  0.80606578  0.07415406  1  -0.969208  0  -0.34529  -0.103353  0  3.462007  0
N  N271  1  0.38404683  0.69393593  0.57415387  1  -0.969199  0  -0.345287  -0.1034  0  3.462084  0
N  N272  1  0.55132690  0.30716930  0.87965833  1  -1.024094  0  -0.344934  -0.158159  0  3.462883  0
N  N273  1  0.44866672  0.19282769  0.37965944  1  -1.024111  0  -0.344872  -0.158093  0  3.462786  0
N  N274  1  0.44866599  0.69283111  0.12034305  1  -1.024056  0  -0.344923  -0.158105  0  3.462892  0
N  N275  1  0.55133490  0.80717202  0.62034194  1  -1.024157  0  -0.344899  -0.158038  0  3.462794  0
O  O276  1  0.55590292  0.22150493  0.72091697  1  -1.176922  0  -0.352175  -0.551929  0  2.240884  0
O  O277  1  0.44406285  0.27849389  0.22091470  1  -1.175989  0  -0.352159  -0.551874  0  2.240806  0
O  O278  1  0.44412368  0.77850087  0.27908555  1  -1.176693  0  -0.352252  -0.552022  0  2.241205  0
O  O279  1  0.55588467  0.72150184  0.77908516  1  -1.176888  0  -0.352248  -0.55198  0  2.241266  0
O  O280  1  0.23679260  0.24560038  0.73825074  1  -1.206068  0  -0.360434  -0.606064  0  2.109068  0
O  O281  1  0.76318757  0.25439691  0.23825219  1  -1.205821  0  -0.360488  -0.606084  0  2.109186  0
O  O282  1  0.76323228  0.75439665  0.26174721  1  -1.20625  0  -0.360526  -0.606209  0  2.108766  0
O  O283  1  0.23677178  0.74560439  0.76174728  1  -1.206112  0  -0.360562  -0.606278  0  2.108589  0
O  O284  1  0.76683067  0.34414797  0.54437042  1  -1.158088  0  -0.330407  -0.499016  0  2.331094  0
O  O285  1  0.23318056  0.15586048  0.04436455  1  -1.157721  0  -0.330523  -0.499258  0  2.330582  0
O  O286  1  0.23317529  0.65585046  0.45563020  1  -1.158226  0  -0.330433  -0.499039  0  2.331325  0
O  O287  1  0.76683291  0.84414543  0.95563150  1  -1.157795  0  -0.330414  -0.499072  0  2.331189  0
O  O288  1  0.75635285  0.48597090  0.54908550  1  -1.20726  0  -0.332791  -0.602208  0  2.24059  0
O  O289  1  0.24365823  0.01403372  0.04908133  1  -1.207255  0  -0.332748  -0.602162  0  2.241143  0
O  O290  1  0.24363867  0.51403266  0.45091283  1  -1.207169  0  -0.332885  -0.602353  0  2.240535  0
O  O291  1  0.75632009  0.98596743  0.95092043  1  -1.207198  0  -0.332806  -0.602228  0  2.240678  0
O  O292  1  0.15934991  0.00465447  0.94829735  1  -1.292122  0  -0.606099  -0.741904  0  2.03333  0
O  O293  1  0.84060955  0.49534083  0.44829895  1  -1.292239  0  -0.606168  -0.742038  0  2.033375  0
O  O294  1  0.84062675  0.99533979  0.05170556  1  -1.292185  0  -0.60618  -0.742026  0  2.033341  0
O  O295  1  0.15938625  0.50465955  0.55169938  1  -1.292139  0  -0.606168  -0.74213  0  2.033259  0
