# generated using pymatgen
data_AlH10C12O5
_symmetry_space_group_name_H-M   'P 1'
_cell_length_a   6.60934176
_cell_length_b   11.13496723
_cell_length_c   11.09335775
_cell_angle_alpha   81.54383842
_cell_angle_beta   72.65789731
_cell_angle_gamma   72.09841424
_symmetry_Int_Tables_number   1
_chemical_formula_structural   AlH10C12O5
_chemical_formula_sum   'Al2 H20 C24 O10'
_cell_volume   740.18979570
_cell_formula_units_Z   2
loop_
 _symmetry_equiv_pos_site_id
 _symmetry_equiv_pos_as_xyz
  1  'x, y, z'
loop_
 _atom_site_type_symbol
 _atom_site_label
 _atom_site_symmetry_multiplicity
 _atom_site_fract_x
 _atom_site_fract_y
 _atom_site_fract_z
 _atom_site_occupancy
 _atom_site_pbe_bader_charge
 _atom_site_pbe_bader_spin_density
 _atom_site_pbe_cm5_charge
 _atom_site_pbe_ddec_charge
 _atom_site_pbe_ddec_spin_density
 _atom_site_pbe_ddec_sum_bond_order
 _atom_site_pbe_magmom
Al  Al0  1  0.49985167  0.50076810  0.50074836  1  2.501388  0  0.393331  1.634535  0  2.580991  0
Al  Al1  1  0.00007851  0.50007317  0.50076075  1  2.500494  0  0.391828  1.628126  0  2.59694  0
H  H2  1  0.29218239  0.34760913  0.57106161  1  0.610122  0  0.348485  0.420882  0  0.877311  0
H  H3  1  0.70855797  0.65407848  0.43221559  1  0.654742  0  0.349913  0.424016  0  0.869206  0
H  H4  1  0.75666819  0.40689856  0.13466270  1  0.106865  0  0.107911  0.114558  0  1.001514  0
H  H5  1  0.24489944  0.59117188  0.86711275  1  0.076908  0  0.107829  0.11434  0  0.998635  0
H  H6  1  0.22106063  0.23993628  0.31497336  1  0.094631  0  0.104333  0.11173  0  1.030821  0
H  H7  1  0.56180288  0.12631501  0.16654304  1  0.060404  0  0.100824  0.097958  0  0.996006  0
H  H8  1  0.44328003  0.76963232  0.32383073  1  0.055526  0  0.104669  0.106202  0  1.036752  0
H  H9  1  0.67234308  0.88969857  0.17064709  1  0.050674  0  0.099404  0.095094  0  1.010791  0
H  H10  1  0.05964298  0.43632657  0.82595129  1  0.093494  0  0.09892  0.149056  0  1.00801  0
H  H11  1  0.98639218  0.29700006  0.82837950  1  0.031239  0  0.092812  0.130341  0  0.988242  0
H  H12  1  0.04968330  0.32991485  0.96302059  1  -3e-06  0  0.090583  0.125569  0  1.000914  0
H  H13  1  0.95245181  0.66880373  0.03861777  1  0.016483  0  0.088958  0.122122  0  1.003139  0
H  H14  1  0.01630204  0.70101813  0.17359724  1  0.028588  0  0.093476  0.130321  0  0.993105  0
H  H15  1  0.94138820  0.56224711  0.17556349  1  0.072632  0  0.099808  0.151089  0  1.005494  0
H  H16  1  0.70194620  0.88962123  0.78419741  1  0.017571  0  0.092903  0.124498  0  1.001956  0
H  H17  1  0.79880480  0.75749470  0.68973297  1  0.056109  0  0.097874  0.142365  0  1.025173  0
H  H18  1  0.56240459  0.88076199  0.67421437  1  0.039626  0  0.098949  0.139997  0  0.977303  0
H  H19  1  0.44441773  0.12106238  0.65110112  1  0.047656  0  0.098432  0.134978  0  0.982226  0
H  H20  1  0.56663807  0.23275406  0.67833258  1  0.028988  0  0.097892  0.135883  0  1.031436  0
H  H21  1  0.57757557  0.08968587  0.77272033  1  0.051997  0  0.094659  0.128801  0  1.001336  0
C  C22  1  0.86254451  0.27355850  0.49219380  1  1.547751  0  0.273974  0.665517  0  4.081173  0
C  C23  1  0.64858436  0.49609237  0.72922949  1  1.584846  0  0.267196  0.643187  0  4.092802  0
C  C24  1  0.13517692  0.72711639  0.51060038  1  1.557899  0  0.274403  0.665168  0  4.078191  0
C  C25  1  0.35230239  0.50352353  0.27247775  1  1.562141  0  0.269109  0.647188  0  4.08593  0
C  C26  1  0.57824886  0.49413471  0.87001046  1  0.007674  0  -0.015205  -0.094593  0  3.951527  0
C  C27  1  0.42326699  0.50418671  0.13172541  1  -0.045948  0  -0.013342  -0.09442  0  3.950904  0
C  C28  1  0.72990645  0.43997779  0.94314757  1  -0.022152  0  -0.0016  0.151705  0  3.959376  0
C  C29  1  0.27163670  0.55811565  0.05857800  1  0.025981  0  -0.001454  0.155292  0  3.953721  0
C  C30  1  0.64604628  0.44740452  0.07407298  1  -0.054207  0  -0.084718  -0.161277  0  3.966525  0
C  C31  1  0.35542126  0.55062427  0.92772316  1  -0.061524  0  -0.084736  -0.15871  0  3.956984  0
C  C32  1  0.93227579  0.13237804  0.49703587  1  0.044318  0  -0.012369  -0.152281  0  3.935498  0
C  C33  1  0.13459210  0.07013965  0.41097915  1  0.007125  0  -0.00491  0.056974  0  3.993879  0
C  C34  1  0.79982100  0.06593989  0.58451349  1  -0.032657  0  -0.001984  0.099712  0  3.914823  0
C  C35  1  0.26897061  0.13702463  0.31910126  1  -0.056356  0  -0.092641  -0.131566  0  3.967605  0
C  C36  1  0.46004397  0.07326642  0.23547474  1  -0.117439  0  -0.094544  -0.082095  0  4.043011  0
C  C37  1  0.06337770  0.86830974  0.50678917  1  -0.017508  0  -0.013724  -0.152424  0  3.936572  0
C  C38  1  0.86797128  0.93058006  0.59026848  1  0.067286  0  -0.000277  0.102167  0  3.922737  0
C  C39  1  0.20038833  0.93479768  0.41508038  1  0.007244  0  -0.004742  0.058549  0  3.992911  0
C  C40  1  0.39534689  0.87227761  0.32523310  1  -0.039215  0  -0.09629  -0.1403  0  3.979876  0
C  C41  1  0.52302123  0.93986070  0.23814636  1  -0.008846  0  -0.09666  -0.086471  0  4.050062  0
C  C42  1  0.96910953  0.37263172  0.88754375  1  -0.034413  0  -0.239372  -0.412475  0  3.960078  0
C  C43  1  0.03266122  0.62575686  0.11422403  1  -0.03365  0  -0.239261  -0.415225  0  3.958172  0
C  C44  1  0.72748191  0.86004161  0.68913929  1  -0.031044  0  -0.237553  -0.407672  0  3.96156  0
C  C45  1  0.58740537  0.13175942  0.67588004  1  -0.06556  0  -0.235558  -0.40587  0  3.95755  0
O  O46  1  0.67863014  0.33068419  0.46831765  1  -1.264688  0  -0.231899  -0.584082  0  2.322914  0
O  O47  1  0.83337821  0.51831387  0.67402136  1  -1.266378  0  -0.232224  -0.587223  0  2.371645  0
O  O48  1  0.00871549  0.67225098  0.48781000  1  -1.262789  0  -0.230481  -0.59148  0  2.346267  0
O  O49  1  0.48076315  0.52542140  0.32730586  1  -1.261412  0  -0.238561  -0.600701  0  2.346786  0
O  O50  1  0.32016356  0.67063600  0.53357937  1  -1.262633  0  -0.233312  -0.590655  0  2.326202  0
O  O51  1  0.16785161  0.48086978  0.32780934  1  -1.268175  0  -0.23271  -0.587271  0  2.365673  0
O  O52  1  0.99081206  0.32788887  0.51398393  1  -1.265466  0  -0.231796  -0.599379  0  2.3543  0
O  O53  1  0.51897080  0.47577024  0.67420465  1  -1.259863  0  -0.237686  -0.600094  0  2.353848  0
O  O54  1  0.25535431  0.43873365  0.55514938  1  -1.415824  0  -0.449212  -0.98515  0  2.212439  0
O  O55  1  0.74451504  0.56271893  0.44646495  1  -1.460651  0  -0.449655  -0.98651  0  2.205103  0
