# generated using pymatgen
data_CoH6(C3N2)2
_symmetry_space_group_name_H-M   'P 1'
_cell_length_a   9.24518656
_cell_length_b   10.38591133
_cell_length_c   12.75983957
_cell_angle_alpha   80.69579002
_cell_angle_beta   68.71774517
_cell_angle_gamma   63.61859203
_symmetry_Int_Tables_number   1
_chemical_formula_structural   CoH6(C3N2)2
_chemical_formula_sum   'Co4 H24 C24 N16'
_cell_volume   1022.74669034
_cell_formula_units_Z   4
loop_
 _symmetry_equiv_pos_site_id
 _symmetry_equiv_pos_as_xyz
  1  'x, y, z'
loop_
 _atom_site_type_symbol
 _atom_site_label
 _atom_site_symmetry_multiplicity
 _atom_site_fract_x
 _atom_site_fract_y
 _atom_site_fract_z
 _atom_site_occupancy
 _atom_site_pbe_bader_charge
 _atom_site_pbe_bader_spin_density
 _atom_site_pbe_cm5_charge
 _atom_site_pbe_ddec_charge
 _atom_site_pbe_ddec_spin_density
 _atom_site_pbe_ddec_sum_bond_order
 _atom_site_pbe_magmom
Co  Co0  1  0.49785275  0.58705572  0.86857523  1  1.127222  2.537031  0.708275  0.650362  2.761426  2.751742  2.461
Co  Co1  1  0.95306622  0.41296049  0.13124267  1  1.127399  2.536749  0.709205  0.651898  2.759882  2.75305  2.461
Co  Co2  1  0.11590306  0.08683508  0.63139570  1  1.127065  2.53721  0.708473  0.649612  2.761766  2.752293  2.461
Co  Co3  1  0.83441426  0.91269608  0.36883006  1  1.128456  2.53671  0.709315  0.652114  2.761904  2.752216  2.461
H  H4  1  0.46945341  0.89636266  0.90259937  1  0.072205  0.002275  0.114735  0.106618  0.000781  1.005646  0.001
H  H5  1  0.26815650  0.10426268  0.09685836  1  0.063884  0.00229  0.114056  0.105962  0.000784  1.004141  0.001
H  H6  1  0.12278693  0.39588308  0.59651928  1  0.067951  0.002277  0.11431  0.106636  0.000779  1.004608  0.001
H  H7  1  0.11502266  0.60408021  0.40294225  1  0.067895  0.002292  0.113656  0.106011  0.000789  1.005916  0.001
H  H8  1  0.28072157  0.13489778  0.79916508  1  0.095272  0.00212  0.107389  0.094562  0.000765  1.053036  0.001
H  H9  1  0.21535302  0.86529619  0.20062990  1  0.085728  0.002091  0.107169  0.094882  0.000764  1.051779  0.001
H  H10  1  0.83124001  0.63470548  0.70028724  1  0.097947  0.002111  0.107241  0.094654  0.000764  1.052726  0.001
H  H11  1  0.16585976  0.36512875  0.29934261  1  0.1115  0.002059  0.107042  0.094939  0.000761  1.051576  0.001
H  H12  1  0.24496823  0.76940815  0.72777622  1  0.113547  0.001403  0.125949  0.081152  0.000376  1.012892  0.001
H  H13  1  0.74218952  0.22990056  0.27245425  1  0.136676  0.001383  0.125992  0.08215  0.00038  1.010364  0.001
H  H14  1  0.72271864  0.26978308  0.77276185  1  0.098843  0.001431  0.125837  0.082038  0.000385  1.011339  0.001
H  H15  1  0.76461779  0.72983738  0.22758319  1  0.076216  0.001452  0.125635  0.081325  0.000379  1.01134  0.001
H  H16  1  0.31858907  0.63499310  0.14854012  1  0.065327  0.001988  0.109833  0.098948  0.000676  1.041225  0.001
H  H17  1  0.10192856  0.36503544  0.85170018  1  0.078439  0.001984  0.109507  0.098585  0.000686  1.039798  0.001
H  H18  1  0.21728064  0.13495051  0.35146235  1  0.096452  0.001949  0.109044  0.097251  0.00068  1.040449  0.001
H  H19  1  0.70276417  0.86493160  0.64853352  1  0.07874  0.001967  0.109516  0.098486  0.000682  1.040416  0.001
H  H20  1  0.53980509  0.55871442  0.27021112  1  0.052335  0.002293  0.112975  0.103676  0.000816  1.008557  0.001
H  H21  1  0.36861765  0.44148650  0.72967162  1  0.102039  0.002214  0.113022  0.104205  0.000813  1.007824  0.001
H  H22  1  0.56017131  0.05873845  0.22982677  1  0.065797  0.002289  0.112789  0.103497  0.000814  1.008359  0.001
H  H23  1  0.84681356  0.94170578  0.77059825  1  0.050752  0.002289  0.113331  0.104435  0.000811  1.008451  0.001
H  H24  1  0.82408873  0.50005121  0.92477286  1  0.118931  0.001277  0.120375  0.072992  0.000264  1.060897  0.001
H  H25  1  0.24836143  0.50085023  0.07502162  1  0.106719  0.001283  0.120387  0.073596  0.000259  1.061038  0.001
H  H26  1  0.49869612  0.99895669  0.57527768  1  0.112106  0.00128  0.119482  0.071785  0.000261  1.062409  0.001
H  H27  1  0.07307442  0.00077701  0.42522609  1  0.126927  0.001269  0.120343  0.072914  0.000265  1.060788  0.001
C  C28  1  0.39612118  0.90524543  0.84987947  1  0.400722  0.014544  -0.018138  -0.05318  0.008454  4.031314  0.011
C  C29  1  0.15117684  0.09503945  0.14983103  1  0.38971  0.014679  -0.018034  -0.052949  0.008523  4.029842  0.011
C  C30  1  0.99668945  0.40495990  0.64960103  1  0.357954  0.014733  -0.018821  -0.055231  0.008484  4.03049  0.011
C  C31  1  0.05093423  0.59486711  0.35010987  1  0.379051  0.014698  -0.019384  -0.05555  0.008542  4.031949  0.011
C  C32  1  0.30141236  0.02361642  0.79901490  1  0.284383  0.010181  -0.02149  -0.057217  0.006044  4.026951  0.008
C  C33  1  0.12436922  0.97644764  0.20092044  1  0.330061  0.010013  -0.020548  -0.05689  0.006004  4.025744  0.008
C  C34  1  0.85146638  0.52346687  0.70062973  1  0.329064  0.01  -0.021137  -0.057454  0.006018  4.027231  0.008
C  C35  1  0.07516328  0.47631907  0.29911100  1  0.32519  0.009963  -0.019393  -0.05612  0.005998  4.026406  0.008
C  C36  1  0.28090042  0.83644965  0.76101176  1  0.934784  0.017302  0.116163  0.136249  0.011031  4.003865  0.014
C  C37  1  0.87841132  0.16312434  0.23892368  1  0.940929  0.01714  0.115824  0.134276  0.011042  4.002771  0.014
C  C38  1  0.79218657  0.33660558  0.73902711  1  0.95772  0.017263  0.116058  0.1334  0.011065  4.004744  0.014
C  C39  1  0.86732308  0.66308558  0.26107826  1  0.969943  0.017222  0.116313  0.135627  0.011035  4.005306  0.014
C  C40  1  0.45668548  0.59603375  0.11935395  1  0.415315  0.011998  -0.021931  -0.061491  0.007085  4.038003  0.009
C  C41  1  0.17183617  0.40424252  0.88071192  1  0.409571  0.012081  -0.02094  -0.058761  0.007088  4.037734  0.009
C  C42  1  0.32612875  0.09565918  0.38067694  1  0.413922  0.011971  -0.020818  -0.058421  0.007082  4.035243  0.009
C  C43  1  0.80163593  0.90426410  0.61953190  1  0.382138  0.012136  -0.021296  -0.060509  0.007108  4.037591  0.009
C  C44  1  0.56647484  0.55745010  0.18016733  1  0.322158  0.014107  -0.020935  -0.061981  0.008291  4.035674  0.01
C  C45  1  0.30397800  0.44285133  0.81974159  1  0.263652  0.014176  -0.022961  -0.066394  0.008299  4.037206  0.01
C  C46  1  0.49684136  0.05713361  0.31988443  1  0.284577  0.014192  -0.022082  -0.063641  0.008288  4.037216  0.01
C  C47  1  0.87253497  0.94301354  0.68051354  1  0.347463  0.013985  -0.02233  -0.064574  0.008289  4.036825  0.01
C  C48  1  0.71676175  0.52616408  0.00245257  1  0.951371  0.018543  0.113278  0.133766  0.012031  3.999936  0.015
C  C49  1  0.24501248  0.47446510  0.99738993  1  0.948044  0.01867  0.113678  0.133305  0.012015  4.001884  0.015
C  C50  1  0.46915413  0.02538499  0.49759386  1  0.946847  0.01865  0.11267  0.13316  0.012015  4.003132  0.015
C  C51  1  0.99197710  0.97429135  0.50283021  1  0.94346  0.018619  0.113053  0.133713  0.012047  4.001508  0.016
N  N52  1  0.55296349  0.57561819  0.00640232  1  -1.25711  0.090309  -0.385847  -0.307799  0.045018  3.656227  0.057
N  N53  1  0.13463311  0.42484251  0.99359352  1  -1.23388  0.090269  -0.385347  -0.307488  0.045024  3.659583  0.057
N  N54  1  0.30932576  0.07498131  0.49362019  1  -1.244797  0.090213  -0.38362  -0.304684  0.045018  3.655987  0.057
N  N55  1  0.87783394  0.92462021  0.50660974  1  -1.256695  0.090102  -0.384347  -0.305342  0.044924  3.655567  0.056
N  N56  1  0.38284043  0.78670827  0.82535290  1  -1.243342  0.092385  -0.387378  -0.312994  0.046071  3.690175  0.054
N  N57  1  0.99466193  0.21321761  0.17435950  1  -1.258822  0.092426  -0.387687  -0.313558  0.04603  3.692712  0.054
N  N58  1  0.95838059  0.28664491  0.67435441  1  -1.244418  0.092328  -0.387051  -0.310429  0.045975  3.689403  0.054
N  N59  1  0.91903345  0.71311100  0.32556559  1  -1.256088  0.092479  -0.386623  -0.311726  0.046002  3.692303  0.054
N  N60  1  0.22846008  0.97921185  0.74274886  1  -1.21817  0.093197  -0.387054  -0.315279  0.046798  3.677793  0.058
N  N61  1  0.95081894  0.02039612  0.25733114  1  -1.249784  0.093736  -0.386817  -0.314723  0.046861  3.678249  0.058
N  N62  1  0.72195419  0.47936100  0.75723272  1  -1.227014  0.093348  -0.386535  -0.313439  0.046732  3.678959  0.058
N  N63  1  0.95802791  0.52037406  0.24274654  1  -1.234909  0.093537  -0.387281  -0.315169  0.046825  3.679592  0.058
N  N64  1  0.73173250  0.51304139  0.10522025  1  -1.233859  0.088777  -0.386904  -0.309353  0.044294  3.677788  0.055
N  N65  1  0.34982140  0.48746604  0.89457187  1  -1.241387  0.089141  -0.386012  -0.307397  0.044262  3.677022  0.055
N  N66  1  0.58704081  0.01247856  0.39482082  1  -1.242134  0.089001  -0.386411  -0.309828  0.044295  3.680979  0.055
N  N67  1  0.99353329  0.98746826  0.60567396  1  -1.237992  0.088922  -0.386768  -0.30921  0.044282  3.679517  0.055
