# generated using pymatgen
data_CuH12C16(NO2)2
_symmetry_space_group_name_H-M   'P 1'
_cell_length_a   4.86401775
_cell_length_b   10.63640521
_cell_length_c   15.22500839
_cell_angle_alpha   90.00054793
_cell_angle_beta   96.85394929
_cell_angle_gamma   89.99968905
_symmetry_Int_Tables_number   1
_chemical_formula_structural   CuH12C16(NO2)2
_chemical_formula_sum   'Cu2 H24 C32 N4 O8'
_cell_volume   782.04685058
_cell_formula_units_Z   2
loop_
 _symmetry_equiv_pos_site_id
 _symmetry_equiv_pos_as_xyz
  1  'x, y, z'
loop_
 _atom_site_type_symbol
 _atom_site_label
 _atom_site_symmetry_multiplicity
 _atom_site_fract_x
 _atom_site_fract_y
 _atom_site_fract_z
 _atom_site_occupancy
 _atom_site_hle17_ddec_charge
 _atom_site_hle17_ddec_spin_density
 _atom_site_hle17_ddec_sum_bond_order
 _atom_site_hle17_magmom
 _atom_site_hse06_10hf_ddec_charge
 _atom_site_hse06_10hf_ddec_spin_density
 _atom_site_hse06_10hf_ddec_sum_bond_order
 _atom_site_hse06_10hf_magmom
 _atom_site_hse06_ddec_charge
 _atom_site_hse06_ddec_spin_density
 _atom_site_hse06_ddec_sum_bond_order
 _atom_site_hse06_magmom
 _atom_site_pbe_cm5_charge
 _atom_site_pbe_ddec_charge
 _atom_site_pbe_ddec_spin_density
 _atom_site_pbe_ddec_sum_bond_order
 _atom_site_pbe_magmom
Cu  Cu0  1  0.00164136  0.02442206  0.99860142  1  0.839139  0.72025  1.881843  0.497  0.820682  0.806065  2.284843  0.613  0.909944  0.88436  2.216834  0.702  0.738875  0.768447  0.749951  2.330047  0.556
Cu  Cu1  1  0.00165407  0.97557363  0.49860361  1  0.839027  -0.720247  1.881863  -0.497  0.820624  -0.806064  2.284732  -0.613  0.909767  -0.884357  2.216781  -0.702  0.738832  0.768373  -0.74995  2.32996  -0.556
H  H2  1  0.46393784  0.41969391  0.14498356  1  0.090681  0.000415  0.960071  0.001  0.110455  0.000244  1.024999  0.0  0.111715  0.000115  1.024661  0.0  0.082721  0.109681  0.000421  1.024996  0.001
H  H3  1  0.46394668  0.58030236  0.64498857  1  0.090703  -0.000415  0.959815  -0.001  0.110452  -0.000243  1.024771  0.0  0.111709  -0.000115  1.024434  0.0  0.082708  0.109688  -0.000421  1.024755  -0.001
H  H4  1  0.75168658  0.33925166  0.10946287  1  0.102642  7.3e-05  0.954455  0.0  0.125851  3.4e-05  1.012742  0.0  0.12717  2.1e-05  1.012602  0.0  0.08922  0.124729  5.7e-05  1.013008  0.0
H  H5  1  0.75170287  0.66074905  0.60947200  1  0.10264  -7.7e-05  0.954445  0.0  0.125841  -3.3e-05  1.01273  0.0  0.127161  -2.1e-05  1.012586  0.0  0.08916  0.12471  -5.7e-05  1.013008  0.0
H  H6  1  0.63494139  0.29979369  0.21224632  1  0.08777  0.000396  0.977689  0.001  0.105467  0.000229  1.046217  0.0  0.106106  0.00011  1.047262  0.0  0.078512  0.105114  0.000323  1.045398  0.001
H  H7  1  0.63493871  0.70021060  0.71225233  1  0.087766  -0.000396  0.977554  -0.001  0.105475  -0.000228  1.046074  0.0  0.106108  -0.00011  1.047126  0.0  0.078547  0.10512  -0.000324  1.045254  -0.001
H  H8  1  0.24454047  0.79218630  0.10528979  1  0.091126  0.001112  0.932563  0.002  0.100561  0.000962  0.992502  0.002  0.103339  0.000697  0.989541  0.001  0.122398  0.098383  0.00118  0.99467  0.002
H  H9  1  0.24458186  0.20780150  0.60529362  1  0.091136  -0.001114  0.93243  -0.002  0.100608  -0.000961  0.992339  -0.002  0.103397  -0.000697  0.989378  -0.001  0.122396  0.098428  -0.00118  0.994515  -0.002
H  H10  1  0.10406261  0.56352465  0.10833009  1  0.105142  0.000397  0.946717  0.0  0.119551  0.000432  0.998093  0.0  0.122761  0.000331  0.997561  0.0  0.110901  0.117099  0.000576  0.998817  0.001
H  H11  1  0.10408724  0.43647200  0.60833872  1  0.105217  -0.000395  0.946649  0.0  0.119671  -0.000431  0.997978  0.0  0.12288  -0.000331  0.997446  0.0  0.110945  0.11722  -0.000576  0.998699  -0.001
H  H12  1  0.68938897  0.49018547  0.00528122  1  0.122045  0.000444  0.965479  0.0  0.13056  0.000182  1.026867  0.0  0.134775  8.1e-05  1.023127  0.0  0.11422  0.127399  0.000314  1.029431  0.0
H  H13  1  0.68940259  0.50980550  0.50528727  1  0.122033  -0.000444  0.965559  0.0  0.130502  -0.000182  1.026997  0.0  0.134711  -8e-05  1.023266  0.0  0.114189  0.127345  -0.000314  1.029587  0.0
H  H14  1  0.30244999  0.54641212  0.88614012  1  0.124384  0.000202  0.953086  0.0  0.134644  0.000171  1.011505  0.0  0.139287  0.000109  1.008062  0.0  0.110589  0.131256  0.00022  1.013964  0.0
H  H15  1  0.30250082  0.45360008  0.38614101  1  0.124346  -0.000201  0.952978  0.0  0.134688  -0.000171  1.011316  0.0  0.139332  -0.000109  1.007873  0.0  0.110616  0.131297  -0.00022  1.013781  0.0
H  H16  1  0.06416236  0.70907289  0.78647796  1  0.100072  0.000294  0.946248  0.0  0.116003  0.000238  0.999631  0.0  0.118406  0.00016  0.999733  0.0  0.107357  0.114144  0.000304  0.999797  0.0
H  H17  1  0.06418562  0.29093759  0.28648388  1  0.10006  -0.000295  0.946332  0.0  0.11601  -0.000237  0.999684  0.0  0.11841  -0.00016  0.999791  0.0  0.107397  0.114149  -0.000304  0.999849  0.0
H  H18  1  0.03109774  0.94057372  0.73440424  1  0.124981  0.00028  0.964774  0.0  0.135403  5.4e-05  1.024239  0.0  0.139177  2.3e-05  1.021618  0.0  0.111953  0.132576  8e-05  1.026311  0.0
H  H19  1  0.03108181  0.05943048  0.23440639  1  0.124996  -0.000282  0.964687  0.0  0.135408  -5.4e-05  1.02416  0.0  0.139182  -2.3e-05  1.021543  0.0  0.111929  0.132574  -8e-05  1.026231  0.0
H  H20  1  0.22488212  0.15720274  0.75285166  1  0.103075  0.000432  0.937019  0.0  0.118193  0.000472  0.986681  0.0  0.121297  0.000356  0.985587  0.0  0.112883  0.115799  0.000559  0.987949  0.001
H  H21  1  0.22487341  0.84280218  0.25284816  1  0.10306  -0.000429  0.937062  0.0  0.118176  -0.000471  0.986731  0.0  0.12128  -0.000356  0.985637  0.0  0.112886  0.115789  -0.000559  0.987987  -0.001
H  H22  1  0.64679092  0.19658188  0.86277169  1  0.102222  0.001145  0.91779  0.002  0.112666  0.000999  0.973019  0.002  0.116436  0.000711  0.969076  0.001  0.127802  0.109889  0.001227  0.975748  0.002
H  H23  1  0.64677639  0.80341223  0.36276639  1  0.102256  -0.001145  0.917609  -0.002  0.11268  -0.000999  0.972842  -0.002  0.116449  -0.000711  0.968899  -0.001  0.127822  0.109902  -0.001228  0.975572  -0.002
H  H24  1  0.19130661  0.21510530  0.13280874  1  0.106025  -0.000272  0.941421  0.0  0.114321  -0.000106  1.006512  0.0  0.11688  -0.00012  1.005455  0.0  0.108283  0.11252  -6.6e-05  1.00744  0.0
H  H25  1  0.19132180  0.78489805  0.63281406  1  0.105988  0.000269  0.941468  0.0  0.114299  0.000106  1.006565  0.0  0.116857  0.000119  1.00551  0.0  0.108311  0.112508  6.5e-05  1.007483  0.0
C  C26  1  0.06520769  0.75573595  0.06307877  1  0.144957  -0.006485  3.682378  -0.007  0.114932  -0.0013  3.940352  -0.002  0.126862  -0.002158  3.955355  -0.003  0.059849  0.107704  -0.000638  3.930224  -0.002
C  C27  1  0.06522812  0.24426300  0.56307675  1  0.144983  0.006508  3.682125  0.007  0.114861  0.001305  3.94007  0.002  0.126776  0.002157  3.955092  0.003  0.059902  0.107636  0.000639  3.92994  0.002
C  C28  1  0.98490573  0.62879531  0.06369748  1  -0.118629  0.007639  3.737434  0.008  -0.131225  0.003852  3.987612  0.005  -0.139591  0.003468  4.007636  0.004  -0.07978  -0.125922  0.004072  3.974225  0.005
C  C29  1  0.98491446  0.37120889  0.56370306  1  -0.118697  -0.007662  3.737814  -0.008  -0.131334  -0.003855  3.988024  -0.005  -0.1397  -0.003464  4.008054  -0.004  -0.079749  -0.126027  -0.004072  3.974636  -0.005
C  C30  1  0.75984283  0.58761211  0.00658838  1  -0.029138  -0.00696  3.637202  -0.006  -0.052036  -0.002658  3.877283  -0.002  -0.046149  -0.002905  3.890851  -0.003  -0.052017  -0.056171  -0.002483  3.868254  -0.002
C  C31  1  0.75986352  0.41238811  0.50659800  1  -0.029112  0.006978  3.637438  0.006  -0.052007  0.00266  3.877462  0.002  -0.046102  0.002899  3.891013  0.003  -0.05204  -0.056158  0.002482  3.868443  0.002
C  C32  1  0.61341931  0.67476192  0.94850894  1  0.030876  0.003865  3.775801  0.004  0.049715  0.002034  4.001292  0.002  0.046445  0.001774  4.024845  0.002  0.00376  0.051804  0.002218  3.985443  0.002
C  C33  1  0.61345468  0.32522874  0.44851492  1  0.030886  -0.003877  3.775432  -0.004  0.049882  -0.002035  4.000738  -0.002  0.046596  -0.001772  4.024321  -0.002  0.003861  0.051971  -0.002219  3.984901  -0.002
C  C34  1  0.37605913  0.64340815  0.88693909  1  -0.09614  0.000789  3.699805  0.001  -0.116351  0.000511  3.944718  0.001  -0.118703  0.00044  3.966108  0.0  -0.078601  -0.114902  0.000585  3.930614  0.001
C  C35  1  0.37609640  0.35659259  0.38693879  1  -0.0961  -0.000785  3.699465  -0.001  -0.11642  -0.000511  3.944343  -0.001  -0.11877  -0.00044  3.965741  0.0  -0.078613  -0.114966  -0.000585  3.930243  -0.001
C  C36  1  0.24476442  0.73340358  0.83290599  1  -0.095985  0.000894  3.726969  0.001  -0.117498  0.000582  3.981281  0.001  -0.121956  0.000509  4.006001  0.001  -0.08157  -0.11459  0.000641  3.964982  0.001
C  C37  1  0.24477976  0.26659769  0.33290487  1  -0.096012  -0.000898  3.727185  -0.001  -0.117539  -0.000582  3.981513  -0.001  -0.121996  -0.000511  4.006236  -0.001  -0.081597  -0.114624  -0.000641  3.965212  -0.001
C  C38  1  0.33869581  0.86146178  0.83535271  1  0.026701  0.00376  3.78296  0.004  0.038246  0.001839  4.026738  0.002  0.035526  0.001542  4.050036  0.002  -0.000185  0.039642  0.002054  4.011845  0.003
C  C39  1  0.33871438  0.13854775  0.33535414  1  0.026697  -0.003762  3.782818  -0.004  0.03827  -0.001839  4.026593  -0.002  0.03555  -0.001543  4.049892  -0.002  -0.000205  0.039666  -0.002055  4.011695  -0.003
C  C40  1  0.21196993  0.95954264  0.78232749  1  -0.042182  -0.007483  3.635749  -0.007  -0.070816  -0.003104  3.892642  -0.003  -0.067041  -0.003228  3.907329  -0.003  -0.060637  -0.07391  -0.003007  3.883954  -0.003
C  C41  1  0.21197698  0.04046177  0.28232978  1  -0.042257  0.007497  3.63543  0.007  -0.070831  0.003108  3.892265  0.003  -0.067057  0.003226  3.906955  0.003  -0.060639  -0.073921  0.003007  3.883566  0.003
C  C42  1  0.32117943  0.07955635  0.79162422  1  -0.086886  0.008233  3.699123  0.009  -0.102483  0.004031  3.954654  0.005  -0.108283  0.00356  3.971417  0.004  -0.072284  -0.099199  0.004317  3.944473  0.005
C  C43  1  0.32116997  0.92044416  0.29162121  1  -0.086893  -0.008249  3.699018  -0.009  -0.102542  -0.004035  3.954549  -0.005  -0.108342  -0.00356  3.971312  -0.004  -0.072337  -0.099263  -0.004318  3.944351  -0.005
C  C44  1  0.55521121  0.10331451  0.85288741  1  0.159794  -0.00655  3.64719  -0.007  0.131346  -0.00126  3.900782  -0.002  0.144005  -0.002193  3.913405  -0.003  0.06692  0.12302  -0.000557  3.89301  -0.002
C  C45  1  0.55520405  0.89668533  0.35288434  1  0.15983  0.006558  3.646977  0.007  0.131445  0.001262  3.90048  0.002  0.144106  0.002192  3.913099  0.003  0.066975  0.123122  0.000556  3.892706  0.002
C  C46  1  0.57210097  0.89383092  0.89556094  1  0.122657  -0.00124  3.78402  -0.002  0.114429  0.000639  4.030983  0.0  0.119435  -0.000159  4.053217  -0.001  0.11228  0.111162  0.001229  4.01674  0.001
C  C47  1  0.57212613  0.10617416  0.39555914  1  0.122821  0.001239  3.783791  0.002  0.114467  -0.000641  4.030959  0.0  0.119473  0.000161  4.053183  0.001  0.112344  0.1112  -0.001229  4.016724  -0.001
C  C48  1  0.70875623  0.80049416  0.95246021  1  0.127349  -0.001209  3.779059  -0.002  0.119798  0.000706  4.021422  0.0  0.125268  -4.9e-05  4.043857  -0.001  0.115509  0.116296  0.001216  4.006233  0.001
C  C49  1  0.70878674  0.19950102  0.45245727  1  0.12748  0.001213  3.779332  0.002  0.119779  -0.000709  4.021818  0.0  0.125252  4.6e-05  4.044251  0.001  0.115326  0.116284  -0.001217  4.006634  -0.001
C  C50  1  0.25235106  0.26973746  0.00346230  1  0.660045  -0.006324  3.8504  -0.009  0.625146  -0.000617  4.153131  -0.003  0.661987  -0.000574  4.148063  -0.002  0.202386  0.599886  -0.000673  4.155909  -0.003
C  C51  1  0.25234390  0.73026585  0.50347095  1  0.659997  0.006331  3.849985  0.009  0.625054  0.000617  4.152868  0.003  0.661893  0.000569  4.147812  0.002  0.202201  0.599795  0.000673  4.15565  0.003
C  C52  1  0.37452937  0.22997358  0.09780984  1  -0.245978  0.000384  3.6945  0.001  -0.244017  0.000282  3.928507  0.001  -0.25515  -1.2e-05  3.939966  0.001  -0.102717  -0.237091  0.00034  3.921253  0.001
C  C53  1  0.37453845  0.77002226  0.59781679  1  -0.245872  -0.000382  3.694415  -0.001  -0.24394  -0.000284  3.928561  -0.001  -0.255079  2.6e-05  3.940022  -0.001  -0.10272  -0.237026  -0.00034  3.92132  -0.001
C  C54  1  0.51349682  0.10122501  0.09484582  1  0.670432  -0.006942  3.828628  -0.01  0.630831  -0.001111  4.132949  -0.003  0.669359  -0.001095  4.125538  -0.003  0.203539  0.604568  -0.001071  4.137242  -0.004
C  C55  1  0.51350885  0.89877327  0.59485112  1  0.670507  0.006944  3.828048  0.01  0.630836  0.001108  4.132552  0.003  0.669359  0.00109  4.125147  0.003  0.203622  0.604575  0.001071  4.136841  0.004
C  C56  1  0.56761765  0.32824088  0.14384071  1  -0.271538  -0.000331  3.754082  -0.001  -0.356236  0.00013  4.004295  0.0  -0.356392  -5.6e-05  4.014031  0.0  -0.251763  -0.355764  0.00026  3.997222  0.0
C  C57  1  0.56762978  0.67176357  0.64384515  1  -0.27154  0.000336  3.753684  0.001  -0.356175  -0.000135  4.00394  0.0  -0.356328  5.6e-05  4.013681  0.0  -0.251663  -0.355703  -0.00026  3.996866  0.0
N  N58  1  0.92940231  0.83913392  0.00903023  1  -0.32083  0.064296  3.340213  0.077  -0.278692  0.050259  3.638833  0.065  -0.306032  0.043442  3.656137  0.059  -0.342604  -0.263064  0.053433  3.628806  0.066
N  N59  1  0.92942356  0.16086026  0.50902637  1  -0.320918  -0.064312  3.340134  -0.077  -0.278597  -0.050258  3.638617  -0.065  -0.305911  -0.04344  3.655903  -0.059  -0.342607  -0.262967  -0.053433  3.628596  -0.066
N  N60  1  0.67679256  0.01218617  0.90334740  1  -0.328732  0.066279  3.34541  0.08  -0.284421  0.051671  3.63992  0.067  -0.312841  0.044353  3.659379  0.061  -0.341885  -0.268368  0.055212  3.629408  0.069
N  N61  1  0.67679281  0.98781312  0.40334523  1  -0.328974  -0.06629  3.345305  -0.08  -0.284628  -0.051673  3.639818  -0.067  -0.313018  -0.044355  3.659246  -0.061  -0.341904  -0.268574  -0.055218  3.629312  -0.069
O  O62  1  0.07405064  0.19437574  0.96062221  1  -0.612694  0.113181  2.08611  0.146  -0.600505  0.068441  2.381971  0.097  -0.648221  0.051185  2.375943  0.077  -0.343004  -0.56917  0.07912  2.38591  0.108
O  O63  1  0.07404620  0.80561830  0.46062981  1  -0.612584  -0.113152  2.086194  -0.146  -0.600366  -0.06843  2.382047  -0.097  -0.648061  -0.051167  2.376033  -0.077  -0.34289  -0.569023  -0.079098  2.385984  -0.108
O  O64  1  0.32195908  0.37126235  0.97208648  1  -0.577223  0.023616  1.904674  0.03  -0.545875  0.011464  2.126814  0.016  -0.573065  0.005905  2.119599  0.009  -0.314126  -0.524884  0.018019  2.129684  0.024
O  O65  1  0.32196465  0.62872466  0.47209198  1  -0.577381  -0.023634  1.904029  -0.03  -0.546024  -0.011466  2.126222  -0.016  -0.573203  -0.005917  2.119002  -0.009  -0.314139  -0.525026  -0.018029  2.129102  -0.024
O  O66  1  0.76995631  0.09106539  0.11714586  1  -0.611868  0.018778  2.006846  0.025  -0.577069  0.00946  2.262592  0.014  -0.606911  0.004838  2.251232  0.008  -0.31937  -0.555464  0.014278  2.268989  0.02
O  O67  1  0.76997028  0.90893631  0.61715327  1  -0.611902  -0.01878  2.006511  -0.025  -0.577077  -0.009458  2.262299  -0.014  -0.606889  -0.004844  2.250932  -0.008  -0.319379  -0.555464  -0.014278  2.26869  -0.02
O  O68  1  0.36193693  0.00578299  0.06838040  1  -0.604303  0.099041  2.093886  0.128  -0.591584  0.06142  2.399502  0.087  -0.635854  0.046155  2.392368  0.069  -0.339437  -0.562633  0.070912  2.404173  0.097
O  O69  1  0.36194814  0.99421624  0.56838170  1  -0.604175  -0.09905  2.093526  -0.128  -0.591542  -0.061427  2.399377  -0.087  -0.635785  -0.046156  2.392234  -0.069  -0.339463  -0.562593  -0.070912  2.404069  -0.097
