# generated using pymatgen
data_CuH7C7NO7
_symmetry_space_group_name_H-M   'P 1'
_cell_length_a   5.90855591
_cell_length_b   12.26404316
_cell_length_c   12.42746016
_cell_angle_alpha   89.99316479
_cell_angle_beta   89.98626011
_cell_angle_gamma   91.35418965
_symmetry_Int_Tables_number   1
_chemical_formula_structural   CuH7C7NO7
_chemical_formula_sum   'Cu4 H28 C28 N4 O28'
_cell_volume   900.27682298
_cell_formula_units_Z   4
loop_
 _symmetry_equiv_pos_site_id
 _symmetry_equiv_pos_as_xyz
  1  'x, y, z'
loop_
 _atom_site_type_symbol
 _atom_site_label
 _atom_site_symmetry_multiplicity
 _atom_site_fract_x
 _atom_site_fract_y
 _atom_site_fract_z
 _atom_site_occupancy
 _atom_site_hle17_ddec_charge
 _atom_site_hle17_ddec_spin_density
 _atom_site_hle17_ddec_sum_bond_order
 _atom_site_hle17_magmom
 _atom_site_hse06_10hf_ddec_charge
 _atom_site_hse06_10hf_ddec_spin_density
 _atom_site_hse06_10hf_ddec_sum_bond_order
 _atom_site_hse06_10hf_magmom
 _atom_site_hse06_ddec_charge
 _atom_site_hse06_ddec_spin_density
 _atom_site_hse06_ddec_sum_bond_order
 _atom_site_hse06_magmom
 _atom_site_pbe_cm5_charge
 _atom_site_pbe_ddec_charge
 _atom_site_pbe_ddec_spin_density
 _atom_site_pbe_ddec_sum_bond_order
 _atom_site_pbe_magmom
Cu  Cu0  1  0.37620055  0.48686608  0.63500503  1  1.028097  -0.729454  1.671816  -0.538  1.039447  -0.821514  2.056099  -0.667  1.12062  -0.888732  1.999321  -0.754  0.714945  0.969405  -0.767391  2.1274  -0.604
Cu  Cu1  1  0.12409360  0.01317863  0.13504324  1  1.027991  -0.723084  1.670874  -0.534  1.039668  -0.8199  2.055165  -0.666  1.120784  -0.888236  1.998455  -0.754  0.715079  0.969584  -0.761666  2.126237  -0.6
Cu  Cu2  1  0.62379981  0.51313600  0.36498280  1  1.028266  -0.730307  1.671909  -0.539  1.039502  -0.821873  2.056268  -0.667  1.120612  -0.888837  1.99944  -0.754  0.715082  0.969677  -0.768842  2.127297  -0.605
Cu  Cu3  1  0.87590445  0.98681121  0.86496711  1  1.027803  0.785032  1.670693  0.533  1.039571  0.870515  2.054894  0.666  1.120761  0.954966  1.998193  0.754  0.71481  0.969343  0.797814  2.126016  0.598
H  H4  1  0.65231752  0.58516739  0.75270792  1  0.424177  7.7e-05  0.8805  0.001  0.393767  -0.000337  0.944317  0.0  0.406438  -0.000164  0.926075  0.0  0.292192  0.384889  -0.000478  0.956984  0.0
H  H5  1  0.84775726  0.91480566  0.25276407  1  0.424202  0.000137  0.880285  0.001  0.393778  -0.000262  0.944093  0.0  0.406457  -0.000103  0.925871  0.0  0.292162  0.384934  -0.000401  0.956706  0.0
H  H6  1  0.34762009  0.41483225  0.24730807  1  0.424134  0.000103  0.880578  0.001  0.393618  -0.000324  0.94456  0.0  0.406296  -0.000151  0.926319  0.0  0.292154  0.384738  -0.000465  0.957224  0.0
H  H7  1  0.15216460  0.08518338  0.74721571  1  0.423983  -4.4e-05  0.880415  -0.001  0.393515  0.000317  0.944293  0.0  0.406193  0.000159  0.926074  0.0  0.292219  0.384665  0.000444  0.956913  0.0
H  H8  1  0.40794277  0.62438596  0.79624226  1  0.436582  -1e-06  0.859047  0.0  0.410227  -0.000427  0.915941  0.0  0.421877  -0.000308  0.89932  0.0  0.30002  0.401931  -0.000504  0.927705  -0.001
H  H9  1  0.09196245  0.87553755  0.29632906  1  0.43635  -6.9e-05  0.859532  0.0  0.410319  -0.00052  0.915939  -0.001  0.42191  -0.000355  0.899383  0.0  0.300213  0.402088  -0.000647  0.927626  -0.001
H  H10  1  0.59196596  0.37557780  0.20378500  1  0.436505  -6.9e-05  0.859087  0.0  0.410171  -0.000516  0.915926  -0.001  0.421806  -0.000353  0.899332  0.0  0.300066  0.401904  -0.000646  0.927639  -0.001
H  H11  1  0.90792938  0.12442621  0.70364026  1  0.43623  9.7e-05  0.85971  0.0  0.41025  0.000486  0.916029  0.0  0.421857  0.000366  0.899441  0.0  0.300215  0.401993  0.000555  0.927757  0.001
H  H12  1  0.98877686  0.32680684  0.68819211  1  0.410053  -7e-06  0.889806  0.0  0.384047  -1.6e-05  0.949274  0.0  0.396505  -1.1e-05  0.93092  0.0  0.280011  0.375168  -2.9e-05  0.96231  0.0
H  H13  1  0.51111208  0.17328156  0.18814313  1  0.41039  -5e-06  0.889335  0.0  0.384394  -2.6e-05  0.948872  0.0  0.39687  -1.7e-05  0.930489  0.0  0.280151  0.375508  -3.9e-05  0.961923  0.0
H  H14  1  0.01120875  0.67320502  0.31182951  1  0.410128  1e-06  0.889554  0.0  0.384081  -2e-05  0.949236  0.0  0.396543  -1.3e-05  0.930875  0.0  0.280006  0.375206  -3.5e-05  0.96227  0.0
H  H15  1  0.48890444  0.82673927  0.81184067  1  0.410383  1.2e-05  0.889245  0.0  0.384403  2.4e-05  0.948825  0.0  0.396878  1.7e-05  0.930441  0.0  0.280074  0.375515  3.2e-05  0.961879  0.0
H  H16  1  0.99557915  0.44579624  0.73118720  1  0.407163  2e-05  0.897196  0.0  0.37978  2.4e-05  0.957519  0.0  0.390722  4.5e-05  0.941188  0.0  0.282567  0.372242  -1e-05  0.968637  0.0
H  H17  1  0.50442694  0.05426863  0.23114308  1  0.407273  -1e-06  0.897148  0.0  0.379906  1.7e-05  0.957365  0.0  0.390865  3.7e-05  0.941006  0.0  0.282598  0.372342  -9e-06  0.968529  0.0
H  H18  1  0.00443919  0.55422703  0.26880384  1  0.407205  3.3e-05  0.897134  0.0  0.379775  3.9e-05  0.957542  0.0  0.390717  5.6e-05  0.941213  0.0  0.282559  0.372235  1e-05  0.968661  0.0
H  H19  1  0.49561372  0.94576117  0.76886406  1  0.407167  -8e-06  0.897286  0.0  0.37984  -2.6e-05  0.957433  0.0  0.3908  -4.1e-05  0.941073  0.0  0.282514  0.372283  -5e-06  0.968586  0.0
H  H20  1  0.49194391  0.07743728  0.57571647  1  0.124021  -9.9e-05  0.95053  0.0  0.130715  -9e-06  1.013483  0.0  0.133918  1e-05  1.01222  0.0  0.116813  0.128318  -4.7e-05  1.014689  0.0
H  H21  1  0.00795487  0.42248386  0.07573157  1  0.124091  -0.000139  0.95014  0.0  0.130662  4.2e-05  1.013358  0.0  0.133869  3.6e-05  1.012097  0.0  0.116904  0.12826  3.9e-05  1.01453  0.0
H  H22  1  0.50803181  0.92254604  0.42425929  1  0.123979  -0.00015  0.950447  0.0  0.130715  -6.6e-05  1.013346  0.0  0.133922  -3e-05  1.012075  0.0  0.116854  0.128321  -0.000121  1.014552  0.0
H  H23  1  0.99202818  0.57751088  0.92429487  1  0.123895  0.000159  0.950386  0.0  0.13053  -4.5e-05  1.013521  0.0  0.133736  -3.7e-05  1.012254  0.0  0.116866  0.128129  -4.8e-05  1.014693  0.0
H  H24  1  0.18044257  0.00523556  0.45357226  1  0.102673  0.000306  0.951461  0.001  0.112317  -0.000109  1.014854  0.0  0.115099  -5.3e-05  1.012801  0.0  0.112197  0.110221  -0.000171  1.016573  0.0
H  H25  1  0.31968263  0.49478027  0.95366013  1  0.102549  0.000581  0.951303  0.001  0.112189  7e-06  1.014662  0.0  0.114974  2.3e-05  1.012586  0.0  0.11194  0.11008  -1e-05  1.016424  0.0
H  H26  1  0.81957460  0.99476407  0.54638016  1  0.102694  0.000394  0.951433  0.001  0.112397  -2.7e-05  1.014781  0.0  0.115182  -4e-06  1.012716  0.0  0.112176  0.110293  -5.8e-05  1.016473  0.0
H  H27  1  0.68032118  0.50522343  0.04637276  1  0.102557  -0.000577  0.951156  -0.001  0.112141  -6.9e-05  1.01458  0.0  0.114979  -5.4e-05  1.012442  0.0  0.111948  0.109994  -8.3e-05  1.016373  0.0
H  H28  1  0.94734525  0.13885198  0.35309979  1  0.136714  -0.000291  0.92819  -0.001  0.144365  -0.000126  0.985249  0.0  0.148228  -5.9e-05  0.983297  0.0  0.121115  0.141504  -0.000188  0.986892  0.0
H  H29  1  0.55310163  0.36119867  0.85325539  1  0.136951  -0.000402  0.927444  -0.001  0.144691  -5.8e-05  0.984335  0.0  0.148547  -1.8e-05  0.982369  0.0  0.121185  0.141844  -0.000108  0.985986  0.0
H  H30  1  0.05268949  0.86116069  0.64685343  1  0.136831  -0.000332  0.927956  -0.001  0.144378  -0.000144  0.985162  0.0  0.14823  -0.000118  0.983232  0.0  0.121139  0.141519  -0.000158  0.986803  0.0
H  H31  1  0.44690436  0.63881481  0.14676784  1  0.136952  0.000515  0.927571  0.001  0.144712  0.000112  0.984439  0.0  0.148569  0.000105  0.982472  0.0  0.121162  0.14186  0.000119  0.986089  0.0
C  C32  1  0.61557759  0.28448072  0.61385102  1  0.654065  0.004944  3.891091  0.008  0.605811  2.3e-05  4.196995  0.002  0.644518  0.000201  4.185852  0.002  0.225264  0.579303  -0.000158  4.202987  0.003
C  C33  1  0.88442944  0.21544352  0.11385852  1  0.654217  0.005214  3.890013  0.008  0.605701  0.000188  4.19623  0.002  0.644416  0.00031  4.185072  0.002  0.22511  0.579174  5.5e-05  4.202243  0.003
C  C34  1  0.38441881  0.71550993  0.38614083  1  0.653996  0.004964  3.891262  0.008  0.605623  -4.1e-05  4.197273  0.002  0.644335  0.000161  4.186126  0.002  0.22504  0.579121  -0.000239  4.203252  0.002
C  C35  1  0.11562775  0.78454467  0.88618080  1  0.654122  -0.004425  3.891156  -0.008  0.605923  3.9e-05  4.196767  -0.002  0.644632  -7.4e-05  4.185641  -0.002  0.225194  0.579387  0.000138  4.202795  -0.003
C  C36  1  0.42749527  0.24295848  0.54180815  1  0.020381  -0.008664  3.600005  -0.009  0.009135  -0.004688  3.855301  -0.005  0.011173  -0.00347  3.868546  -0.004  0.114307  0.007214  -0.006178  3.846955  -0.007
C  C37  1  0.07246387  0.25700781  0.04177404  1  0.019471  -0.009914  3.600697  -0.011  0.008602  -0.005496  3.855868  -0.006  0.010666  -0.004379  3.869131  -0.005  0.113873  0.006507  -0.007014  3.847625  -0.008
C  C38  1  0.57253015  0.75703707  0.45817162  1  0.020375  -0.008838  3.59988  -0.009  0.009201  -0.004891  3.85513  -0.005  0.01121  -0.003616  3.868403  -0.004  0.11437  0.007315  -0.006448  3.846774  -0.007
C  C39  1  0.92759547  0.74298936  0.95825723  1  0.019187  0.010627  3.601032  0.011  0.008276  0.005665  3.856113  0.006  0.010325  0.004591  3.869399  0.005  0.113892  0.006157  0.007112  3.847889  0.007
C  C40  1  0.38557776  0.13151486  0.52981126  1  -0.086778  0.004763  3.700276  0.005  -0.111255  0.000807  3.959628  0.001  -0.114047  0.001507  3.976643  0.002  -0.068338  -0.109819  4.9e-05  3.949268  0.001
C  C41  1  0.11445491  0.36844480  0.02983201  1  -0.086482  0.008428  3.700366  0.008  -0.111287  0.002467  3.959893  0.003  -0.114118  0.002835  3.976916  0.003  -0.068539  -0.10969  0.002283  3.949475  0.003
C  C42  1  0.61442409  0.86848314  0.47017013  1  -0.086646  0.004336  3.700201  0.005  -0.111141  0.000338  3.959496  0.001  -0.113924  0.001174  3.97652  0.002  -0.068409  -0.109702  -0.000533  3.949102  0.0
C  C43  1  0.88555059  0.63155890  0.97018881  1  -0.086103  -0.008076  3.700349  -0.009  -0.110948  -0.002708  3.959852  -0.003  -0.113767  -0.002903  3.976886  -0.003  -0.068434  -0.109355  -0.002676  3.949447  -0.003
C  C44  1  0.21262563  0.09235197  0.46354334  1  0.007795  -0.014791  3.679679  -0.014  -0.022654  -0.0058  3.948966  -0.006  -0.018337  -0.004192  3.963122  -0.004  -0.064262  -0.025791  -0.007835  3.940177  -0.007
C  C45  1  0.28753121  0.40765441  0.96359658  1  0.007632  -0.018059  3.679465  -0.017  -0.022499  -0.007457  3.948466  -0.007  -0.018105  -0.005721  3.962591  -0.006  -0.063964  -0.025869  -0.009636  3.939728  -0.009
C  C46  1  0.78736305  0.90765337  0.53643081  1  0.007603  -0.015141  3.680275  -0.014  -0.022862  -0.006144  3.949593  -0.006  -0.018531  -0.00445  3.963746  -0.004  -0.064267  -0.026004  -0.008273  3.940811  -0.008
C  C47  1  0.71243928  0.59235990  0.03641539  1  0.007728  0.019055  3.678852  0.017  -0.022372  0.007484  3.947841  0.007  -0.018033  0.005851  3.961949  0.006  -0.063869  -0.025675  0.009516  3.939127  0.009
C  C48  1  0.08039324  0.16619495  0.40806689  1  -0.056376  0.007172  3.65997  0.007  -0.083243  0.000564  3.922589  0.001  -0.085551  0.001322  3.937382  0.002  -0.059208  -0.082227  -0.000157  3.913668  0.0
C  C49  1  0.41990125  0.33382672  0.90816540  1  -0.056572  0.012612  3.659537  0.012  -0.083324  0.003297  3.92176  0.003  -0.085642  0.003446  3.93652  0.004  -0.059385  -0.082237  0.003278  3.912882  0.003
C  C50  1  0.91961603  0.83381609  0.59190082  1  -0.056439  0.007077  3.660196  0.007  -0.08334  0.000436  3.922969  0.001  -0.085644  0.00122  3.937771  0.001  -0.05928  -0.0823  -0.000304  3.914049  0.0
C  C51  1  0.58007102  0.66618923  0.09184335  1  -0.056826  -0.011485  3.659635  -0.012  -0.083571  -0.003021  3.921921  -0.003  -0.085909  -0.003105  3.936671  -0.004  -0.059448  -0.082498  -0.003079  3.913032  -0.003
C  C52  1  0.12252578  0.27679836  0.42106402  1  0.04808  -0.021696  3.576744  -0.023  0.0396  -0.010694  3.823985  -0.012  0.042787  -0.007677  3.834974  -0.009  0.125554  0.03681  -0.013625  3.817976  -0.015
C  C53  1  0.37766762  0.22319637  0.92102794  1  0.04795  -0.011163  3.575692  -0.011  0.039318  -0.004621  3.823023  -0.005  0.042572  -0.004032  3.833965  -0.004  0.125483  0.036338  -0.005411  3.817094  -0.005
C  C54  1  0.87748667  0.72320860  0.57891817  1  0.048106  -0.021705  3.576971  -0.023  0.039744  -0.010715  3.824121  -0.012  0.042906  -0.00768  3.835145  -0.009  0.125598  0.036922  -0.013691  3.818144  -0.015
C  C55  1  0.62231622  0.77681386  0.07897195  1  0.048323  0.012338  3.57518  0.011  0.039481  0.005075  3.822713  0.005  0.042812  0.004465  3.83355  0.004  0.125547  0.03652  0.005779  3.816773  0.005
C  C56  1  0.99415732  0.36546210  0.36455465  1  0.664013  0.004797  3.888476  0.008  0.615286  0.00017  4.191266  0.003  0.654332  0.000558  4.178368  0.002  0.229885  0.58863  -0.000212  4.198237  0.003
C  C57  1  0.50591033  0.13456759  0.86449062  1  0.663772  -0.0029  3.88971  -0.005  0.615265  1.8e-05  4.19205  -0.002  0.654338  -0.000255  4.179147  -0.002  0.229871  0.588564  0.000243  4.199053  -0.002
C  C58  1  0.00585835  0.63454160  0.63542673  1  0.664301  0.004776  3.889  0.008  0.615647  0.000165  4.191665  0.002  0.654711  0.000556  4.178771  0.002  0.230123  0.588998  -0.00022  4.198647  0.003
C  C59  1  0.49408023  0.86544182  0.13551732  1  0.663683  0.003478  3.889586  0.005  0.615361  0.000207  4.191704  0.002  0.654417  0.000478  4.178794  0.002  0.230018  0.588678  -3.9e-05  4.198674  0.002
N  N60  1  0.29169180  0.31335202  0.48758256  1  0.232223  0.006034  3.627525  0.011  0.283273  0.000725  3.891723  0.004  0.285573  0.001641  3.912827  0.004  -0.099882  0.281141  -0.000318  3.875844  0.003
N  N61  1  0.20826884  0.18659911  0.98750763  1  0.232343  0.008641  3.626691  0.014  0.283136  0.002737  3.891152  0.006  0.285412  0.003397  3.912339  0.006  -0.099981  0.281069  0.001882  3.875119  0.005
N  N62  1  0.70833539  0.68664516  0.51238917  1  0.232156  0.006006  3.62787  0.011  0.283122  0.00069  3.892062  0.004  0.285441  0.001631  3.913168  0.004  -0.099935  0.280979  -0.000377  3.876206  0.003
N  N63  1  0.79177547  0.81340214  0.01251801  1  0.232217  -0.007643  3.625845  -0.014  0.283005  -0.002411  3.890393  -0.006  0.285262  -0.002989  3.911557  -0.006  -0.100125  0.280943  -0.001655  3.874379  -0.005
O  O64  1  0.60080433  0.37655291  0.66099695  1  -0.582627  -0.081654  2.107734  -0.11  -0.55737  -0.051526  2.390623  -0.076  -0.59905  -0.038234  2.380853  -0.06  -0.313468  -0.525924  -0.060673  2.397758  -0.086
O  O65  1  0.89916496  0.12333914  0.16097723  1  -0.582439  -0.081863  2.107367  -0.111  -0.556962  -0.051606  2.389964  -0.076  -0.598642  -0.038298  2.380214  -0.06  -0.313266  -0.525483  -0.06082  2.397099  -0.086
O  O66  1  0.39921304  0.62345079  0.33896593  1  -0.582586  -0.081928  2.107834  -0.111  -0.557239  -0.051608  2.390725  -0.076  -0.598887  -0.038259  2.380924  -0.06  -0.313323  -0.525875  -0.06093  2.397889  -0.086
O  O67  1  0.10094062  0.87666943  0.83910554  1  -0.582455  0.088672  2.107492  0.11  -0.557087  0.054775  2.389916  0.076  -0.598772  0.041343  2.380175  0.06  -0.313328  -0.525569  0.063488  2.397038  0.085
O  O68  1  0.78157169  0.22313539  0.62692521  1  -0.613599  -0.010458  1.987492  -0.014  -0.561339  -0.005399  2.206634  -0.008  -0.590249  -0.00274  2.198634  -0.004  -0.301443  -0.540797  -0.008131  2.211734  -0.011
O  O69  1  0.71846148  0.27680346  0.12697632  1  -0.613784  -0.010531  1.986432  -0.014  -0.561326  -0.005706  2.205729  -0.008  -0.590252  -0.003014  2.197722  -0.005  -0.301411  -0.540787  -0.008548  2.210838  -0.012
O  O70  1  0.21842832  0.77686015  0.37311492  1  -0.613595  -0.010975  1.987556  -0.015  -0.561253  -0.006061  2.206768  -0.009  -0.590157  -0.003203  2.198789  -0.005  -0.3014  -0.540734  -0.008976  2.211854  -0.012
O  O71  1  0.28154002  0.72315375  0.87300667  1  -0.613763  0.010973  1.987002  0.013  -0.561388  0.005418  2.20612  0.007  -0.590318  0.00283  2.1981  0.004  -0.301472  -0.540823  0.008108  2.211269  0.011
O  O72  1  0.80584603  0.38751553  0.40813111  1  -0.57541  -0.06769  2.073273  -0.092  -0.551878  -0.043401  2.35189  -0.064  -0.589922  -0.0331  2.339887  -0.052  -0.306373  -0.522735  -0.050301  2.360216  -0.071
O  O73  1  0.69410164  0.11242535  0.90815807  1  -0.575011  0.073559  2.072665  0.091  -0.551891  0.046272  2.351214  0.064  -0.590078  0.035913  2.339269  0.052  -0.306178  -0.522391  0.052498  2.359463  0.07
O  O74  1  0.19415860  0.61247023  0.59184705  1  -0.575617  -0.067626  2.073574  -0.092  -0.552065  -0.043404  2.352146  -0.064  -0.59012  -0.033112  2.340152  -0.052  -0.306453  -0.522872  -0.050206  2.360436  -0.071
O  O75  1  0.30588352  0.88757754  0.09185631  1  -0.574914  -0.067609  2.072895  -0.091  -0.551816  -0.04345  2.351377  -0.064  -0.589991  -0.033182  2.339426  -0.052  -0.30621  -0.522326  -0.050055  2.359629  -0.07
O  O76  1  0.07768507  0.40722346  0.28041882  1  -0.606759  -0.001005  2.027673  -0.002  -0.54662  -0.000987  2.243466  -0.002  -0.575307  -0.00012  2.233221  -0.001  -0.287448  -0.52613  -0.001868  2.249372  -0.003
O  O77  1  0.42240136  0.09273726  0.78042501  1  -0.60659  -0.001465  2.028451  -0.001  -0.546696  -0.000708  2.244149  0.0  -0.57545  -0.000914  2.233975  -0.001  -0.287269  -0.526118  -0.000557  2.249991  0.0
O  O78  1  0.92229901  0.59279167  0.71956256  1  -0.606844  -0.001154  2.027821  -0.002  -0.546912  -0.001084  2.243704  -0.002  -0.575607  -0.000198  2.233457  -0.001  -0.287625  -0.526424  -0.001983  2.249606  -0.003
O  O79  1  0.57759223  0.90726481  0.21958293  1  -0.606578  0.001829  2.028413  0.001  -0.546756  0.000879  2.244039  0.0  -0.575509  0.001064  2.233852  0.001  -0.287278  -0.526188  0.000718  2.24989  0.0
O  O80  1  0.32011921  0.42131371  0.49263209  1  -0.503392  -0.090686  1.955087  -0.124  -0.517738  -0.050208  2.264998  -0.075  -0.55454  -0.036321  2.261222  -0.058  -0.227278  -0.487878  -0.05941  2.268121  -0.085
O  O81  1  0.17956826  0.07870941  0.99252212  1  -0.502873  -0.089942  1.955666  -0.12  -0.517216  -0.05051  2.265641  -0.073  -0.554017  -0.037343  2.261945  -0.057  -0.227128  -0.487305  -0.058303  2.268624  -0.081
O  O82  1  0.67993305  0.57867693  0.50733401  1  -0.503402  -0.090932  1.955114  -0.124  -0.517653  -0.050275  2.265017  -0.075  -0.554457  -0.03634  2.261225  -0.058  -0.227245  -0.487792  -0.059641  2.26812  -0.085
O  O83  1  0.82050671  0.92129591  0.00751961  1  -0.50296  0.09772  1.955332  0.12  -0.517208  0.053737  2.265238  0.073  -0.554015  0.040403  2.26155  0.057  -0.227174  -0.487312  0.061016  2.268236  0.08
O  O84  1  0.49169485  0.56129865  0.76821539  1  -0.817354  -0.048084  1.940573  -0.064  -0.778185  -0.038327  2.14994  -0.055  -0.807889  -0.030545  2.112663  -0.046  -0.578787  -0.754909  -0.043083  2.177862  -0.058
O  O85  1  0.00833428  0.93864803  0.26830424  1  -0.817304  -0.047943  1.940119  -0.063  -0.77838  -0.038352  2.149269  -0.055  -0.807984  -0.030529  2.112062  -0.046  -0.579051  -0.75526  -0.043134  2.177007  -0.058
O  O86  1  0.50824331  0.43867815  0.23179175  1  -0.817353  -0.048579  1.940624  -0.064  -0.77804  -0.038683  2.15012  -0.055  -0.807733  -0.030736  2.112836  -0.046  -0.578906  -0.754839  -0.043696  2.177948  -0.059
O  O87  1  0.99157656  0.06132388  0.73168600  1  -0.81682  0.051807  1.940171  0.063  -0.77796  0.040505  2.149382  0.054  -0.807585  0.032867  2.112167  0.046  -0.579024  -0.754788  0.044703  2.177157  0.058
O  O88  1  0.08997973  0.38119253  0.72324384  1  -0.853648  0.001164  1.858508  0.0  -0.81747  0.00105  2.030671  0.0  -0.836884  0.00138  1.996493  0.001  -0.608321  -0.800565  0.00037  2.055785  0.0
O  O89  1  0.40989992  0.11881559  0.22311885  1  -0.854138  0.001611  1.858792  0.001  -0.818033  0.001073  2.031026  0.001  -0.83739  0.001353  1.996654  0.001  -0.608401  -0.801132  0.000598  2.056199  0.0
O  O90  1  0.91001269  0.61882015  0.27676410  1  -0.853767  0.001172  1.858236  0.0  -0.817571  0.001076  2.030544  0.0  -0.837004  0.001381  1.996378  0.001  -0.608303  -0.800683  0.000403  2.055643  0.0
O  O91  1  0.59012853  0.88120686  0.77688346  1  -0.853924  -0.001574  1.858847  -0.001  -0.817836  -0.00106  2.031085  -0.001  -0.837186  -0.001271  1.996709  -0.001  -0.608173  -0.800959  -0.0007  2.05627  0.0
