# generated using pymatgen
data_RbH2C5N3O5
_symmetry_space_group_name_H-M   'P 1'
_cell_length_a   4.22482373
_cell_length_b   9.01598465
_cell_length_c   10.89125506
_cell_angle_alpha   91.94947180
_cell_angle_beta   90.56891678
_cell_angle_gamma   102.64055994
_symmetry_Int_Tables_number   1
_chemical_formula_structural   RbH2C5N3O5
_chemical_formula_sum   'Rb2 H4 C10 N6 O10'
_cell_volume   404.50441007
_cell_formula_units_Z   2
loop_
 _symmetry_equiv_pos_site_id
 _symmetry_equiv_pos_as_xyz
  1  'x, y, z'
loop_
 _atom_site_type_symbol
 _atom_site_label
 _atom_site_symmetry_multiplicity
 _atom_site_fract_x
 _atom_site_fract_y
 _atom_site_fract_z
 _atom_site_occupancy
 _atom_site_hle17_bader_spin_density
 _atom_site_hle17_ddec_charge
 _atom_site_hle17_ddec_spin_density
 _atom_site_hle17_ddec_sum_bond_order
 _atom_site_hle17_magmom
 _atom_site_hse06_10hf_bader_spin_density
 _atom_site_hse06_10hf_ddec_charge
 _atom_site_hse06_10hf_ddec_spin_density
 _atom_site_hse06_10hf_ddec_sum_bond_order
 _atom_site_hse06_10hf_magmom
 _atom_site_hse06_bader_spin_density
 _atom_site_hse06_ddec_charge
 _atom_site_hse06_ddec_spin_density
 _atom_site_hse06_ddec_sum_bond_order
 _atom_site_hse06_magmom
 _atom_site_pbe_bader_spin_density
 _atom_site_pbe_cm5_charge
 _atom_site_pbe_ddec_charge
 _atom_site_pbe_ddec_spin_density
 _atom_site_pbe_ddec_sum_bond_order
 _atom_site_pbe_magmom
Rb  Rb0  1  0.79138199  0.19096297  0.61930489  1  0  0.938695  0  0.504008  0  0  0.876309  0  0.732342  0  0  0.893623  0  0.706483  0  0  0.825492  0.863567  0  0.750765  0
Rb  Rb1  1  0.20861929  0.80903681  0.38069519  1  0  0.938692  0  0.504011  0  0  0.876315  0  0.732339  0  0  0.893623  0  0.706485  0  0  0.825496  0.863578  0  0.750761  0
H  H2  1  0.63809204  0.53593000  0.88427324  1  0  0.144223  0  0.94534  0  0  0.143853  0  1.018745  0  0  0.148522  0  1.012649  0  0  0.126843  0.140467  0  1.023019  0
H  H3  1  0.36190687  0.46406978  0.11572684  1  0  0.144212  0  0.945365  0  0  0.143826  0  1.018782  0  0  0.148494  0  1.012689  0  0  0.126836  0.14044  0  1.023056  0
H  H4  1  0.27642040  0.98221068  0.90723215  1  0  0.095703  0  0.95343  0  0  0.098872  0  1.024993  0  0  0.102661  0  1.01952  0  0  0.121454  0.095976  0  1.029064  0
H  H5  1  0.72358088  0.01778910  0.09276793  1  0  0.095696  0  0.953421  0  0  0.098868  0  1.024979  0  0  0.102657  0  1.019507  0  0  0.121457  0.095973  0  1.029051  0
C  C6  1  0.79850753  0.82049143  0.67193375  1  0  0.512194  0  3.895186  0  0  0.479349  0  4.180753  0  0  0.506962  0  4.184284  0  0  0.209335  0.46113  0  4.177558  0
C  C7  1  0.20149138  0.17950836  0.32806632  1  0  0.512202  0  3.895213  0  0  0.479371  0  4.180769  0  0  0.506986  0  4.184299  0  0  0.209339  0.46116  0  4.177579  0
C  C8  1  0.66128915  0.67591106  0.72773267  1  0  -0.072383  0  3.617961  0  0  -0.084027  0  3.86368  0  0  -0.099273  0  3.885162  0  0  0.07263  -0.074651  0  3.849735  0
C  C9  1  0.33870976  0.32408872  0.27226740  1  0  -0.072388  0  3.61789  0  0  -0.084046  0  3.863605  0  0  -0.099294  0  3.88509  0  0  0.072606  -0.074697  0  3.849697  0
C  C10  1  0.74574053  0.64432453  0.84501724  1  0  -0.052464  0  3.706711  0  0  -0.099436  0  3.984045  0  0  -0.087371  0  3.997967  0  0  -0.056056  -0.106604  0  3.97422  0
C  C11  1  0.25425838  0.35567525  0.15498191  1  0  -0.052469  0  3.706658  0  0  -0.099413  0  3.983979  0  0  -0.087349  0  3.9979  0  0  -0.056043  -0.106572  0  3.974164  0
C  C12  1  0.96791821  0.75651655  0.91102887  1  0  -0.012819  0  3.731016  0  0  -0.030862  0  3.995119  0  0  -0.046227  0  4.020897  0  0  0.058828  -0.021263  0  3.977764  0
C  C13  1  0.03208361  0.24348436  0.08897125  1  0  -0.012819  0  3.731008  0  0  -0.030857  0  3.995112  0  0  -0.04622  0  4.02089  0  0  0.058833  -0.021257  0  3.977758  0
C  C14  1  0.10146479  0.89493456  0.85526271  1  0  0.146242  0  3.721414  0  0  0.105624  0  3.995835  0  0  0.119806  0  4.009554  0  0  0.068545  0.096657  0  3.986283  0
C  C15  1  0.89853412  0.10506523  0.14473736  1  0  0.146276  0  3.72139  0  0  0.105654  0  3.995815  0  0  0.119838  0  4.009533  0  0  0.068555  0.096687  0  3.986266  0
N  N16  1  0.02441625  0.92576383  0.74278758  1  0  -0.449347  0  3.007046  0  0  -0.414835  0  3.28566  0  0  -0.434382  0  3.295549  0  0  -0.375553  -0.401603  0  3.27846  0
N  N17  1  0.97558266  0.07423595  0.25721249  1  0  -0.449348  0  3.007058  0  0  -0.414841  0  3.285676  0  0  -0.434386  0  3.29556  0  0  -0.375551  -0.401609  0  3.278479  0
N  N18  1  0.43437793  0.55786190  0.66028363  1  0  0.517094  0  3.937182  0  0  0.582612  0  4.171014  0  0  0.606228  0  4.17817  0  0  0.047129  0.566713  0  4.166154  0
N  N19  1  0.56562098  0.44213788  0.33971644  1  0  0.517087  0  3.937204  0  0  0.582607  0  4.171031  0  0  0.606224  0  4.178186  0  0  0.04713  0.566716  0  4.166176  0
N  N20  1  0.05487343  0.73205209  0.03469398  1  0  0.475518  0  3.973467  0  0  0.537196  0  4.225889  0  0  0.559953  0  4.23672  0  0  0.039368  0.522093  0  4.218446  0
N  N21  1  0.94512494  0.26794656  0.96530605  1  0  0.475474  0  3.973477  0  0  0.53712  0  4.225957  0  0  0.559877  0  4.236788  0  0  0.039323  0.522017  0  4.218512  0
O  O22  1  0.73115951  0.85346182  0.56522021  1  0  -0.646917  0  2.002954  0  0  -0.615451  0  2.25201  0  0  -0.638722  0  2.245548  0  0  -0.445919  -0.599126  0  2.255946  0
O  O23  1  0.26884176  0.14653796  0.43477987  1  0  -0.646939  0  2.00293  0  0  -0.615468  0  2.251984  0  0  -0.638739  0  2.245521  0  0  -0.445925  -0.599141  0  2.255917  0
O  O24  1  0.24707844  0.59399170  0.58390117  1  0  -0.371627  0  1.80932  0  0  -0.371825  0  2.019686  0  0  -0.382771  0  2.015477  0  0  -0.159346  -0.364496  0  2.022591  0
O  O25  1  0.75292337  0.40600922  0.41609894  1  0  -0.371649  0  1.809341  0  0  -0.371831  0  2.0197  0  0  -0.382779  0  2.01549  0  0  -0.159353  -0.3645  0  2.022603  0
O  O26  1  0.43250785  0.42254433  0.68315866  1  0  -0.436155  0  1.818676  0  0  -0.434425  0  2.039153  0  0  -0.448469  0  2.033033  0  0  -0.22521  -0.42503  0  2.043552  0
O  O27  1  0.56749343  0.57745544  0.31684143  1  0  -0.436132  0  1.818687  0  0  -0.434419  0  2.039163  0  0  -0.448458  0  2.033036  0  0  -0.225202  -0.425023  0  2.043561  0
O  O28  1  0.90438421  0.61661100  0.08606697  1  0  -0.371921  0  1.79124  0  0  -0.363288  0  1.997355  0  0  -0.376644  0  1.994023  0  0  -0.137423  -0.354042  0  1.999594  0
O  O29  1  0.09561470  0.38338878  0.91393311  1  0  -0.371925  0  1.79117  0  0  -0.363291  0  1.997297  0  0  -0.376647  0  1.993966  0  0  -0.137431  -0.354044  0  1.999535  0
O  O30  1  0.27968371  0.82814456  0.08747124  1  0  -0.416038  0  1.770512  0  0  -0.409677  0  1.979652  0  0  -0.423908  0  1.976108  0  0  -0.170125  -0.399805  0  1.982011  0
O  O31  1  0.72031756  0.17185522  0.91252884  1  0  -0.415966  0  1.770575  0  0  -0.409583  0  1.979711  0  0  -0.423817  0  1.976178  0  0  -0.170064  -0.39971  0  1.982071  0
