# generated using pymatgen
data_Cu3H18(C3N)7
_symmetry_space_group_name_H-M   'P 1'
_cell_length_a   29.99773237
_cell_length_b   30.04791872
_cell_length_c   30.20306569
_cell_angle_alpha   89.88891276
_cell_angle_beta   89.73141403
_cell_angle_gamma   90.83264663
_symmetry_Int_Tables_number   1
_chemical_formula_structural   Cu3H18(C3N)7
_chemical_formula_sum   'Cu12 H72 C84 N28'
_cell_volume   27220.89129774
_cell_formula_units_Z   4
loop_
 _symmetry_equiv_pos_site_id
 _symmetry_equiv_pos_as_xyz
  1  'x, y, z'
loop_
 _atom_site_type_symbol
 _atom_site_label
 _atom_site_symmetry_multiplicity
 _atom_site_fract_x
 _atom_site_fract_y
 _atom_site_fract_z
 _atom_site_occupancy
 _atom_site_pbe_bader_charge
 _atom_site_pbe_bader_spin_density
 _atom_site_pbe_cm5_charge
 _atom_site_pbe_ddec_charge
 _atom_site_pbe_ddec_spin_density
 _atom_site_pbe_ddec_sum_bond_order
 _atom_site_pbe_magmom
Cu  Cu0  1  0.56967679  0.60651795  0.66228363  1  0.541321  0  0.48263  0.20189  0  2.122945  0
Cu  Cu1  1  0.61443411  0.65455529  0.57920202  1  0.542357  0  0.483202  0.203544  0  2.116573  0
Cu  Cu2  1  0.64826858  0.55974619  0.61132682  1  0.542076  0  0.483144  0.202083  0  2.122336  0
Cu  Cu3  1  0.91783144  0.38473950  0.17372740  1  0.539846  0  0.482841  0.20161  0  2.126765  0
Cu  Cu4  1  0.88364837  0.34428060  0.08336108  1  0.541127  0  0.483901  0.203285  0  2.120226  0
Cu  Cu5  1  0.84343574  0.43498698  0.11991607  1  0.541527  0  0.482731  0.20284  0  2.117251  0
Cu  Cu6  1  0.42913449  0.11296756  0.84923440  1  0.543154  0  0.483316  0.202701  0  2.11881  0
Cu  Cu7  1  0.39092628  0.15389987  0.93806924  1  0.538628  0  0.482327  0.201697  0  2.124198  0
Cu  Cu8  1  0.33611804  0.07857112  0.88885272  1  0.539584  0  0.483639  0.203382  0  2.123263  0
Cu  Cu9  1  0.07662033  0.89126579  0.34987588  1  0.542872  0  0.48364  0.204094  0  2.117283  0
Cu  Cu10  1  0.11470138  0.85066832  0.43831075  1  0.540502  0  0.483091  0.202378  0  2.125783  0
Cu  Cu11  1  0.17052960  0.92519341  0.38745114  1  0.538433  0  0.483117  0.202878  0  2.117436  0
H  H12  1  0.50125218  0.68006973  0.69242143  1  0.084866  0  0.118911  0.111537  0  0.989464  0
H  H13  1  0.56021806  0.74476819  0.57749522  1  0.101994  0  0.11871  0.109836  0  0.992867  0
H  H14  1  0.66464569  0.47671927  0.67458476  1  0.09165  0  0.119088  0.110476  0  0.992222  0
H  H15  1  0.54891589  0.53451353  0.73730635  1  0.100489  0  0.119058  0.110824  0  0.988981  0
H  H16  1  0.67848370  0.67126519  0.49679228  1  0.080396  0  0.118622  0.108669  0  0.993019  0
H  H17  1  0.71629847  0.53770006  0.53393430  1  0.075341  0  0.118753  0.110867  0  0.989884  0
H  H18  1  0.97965958  0.30637344  0.20705871  1  0.079386  0  0.11882  0.110582  0  0.989822  0
H  H19  1  0.94426838  0.25846963  0.07641177  1  0.098209  0  0.118751  0.10917  0  0.992656  0
H  H20  1  0.83214541  0.52164901  0.17914197  1  0.099759  0  0.11894  0.110309  0  0.992626  0
H  H21  1  0.94191420  0.45800525  0.24573618  1  0.095979  0  0.119173  0.111528  0  0.989449  0
H  H22  1  0.82776732  0.33236644  0.99548359  1  0.102305  0  0.118602  0.109278  0  0.992833  0
H  H23  1  0.77422093  0.45640303  0.04383386  1  0.096749  0  0.119076  0.111374  0  0.988697  0
H  H24  1  0.51680707  0.17277183  0.83679416  1  0.065078  0  0.118535  0.109242  0  0.99272  0
H  H25  1  0.47242958  0.21622937  0.96621381  1  0.085226  0  0.118817  0.11112  0  0.988988  0
H  H26  1  0.30803055  0.00827965  0.81578733  1  0.071615  0  0.118745  0.110778  0  0.989421  0
H  H27  1  0.43548686  0.05331293  0.76296295  1  0.085594  0  0.118804  0.10943  0  0.993124  0
H  H28  1  0.31812469  0.18633171  0.00737647  1  0.103176  0  0.119044  0.111516  0  0.988821  0
H  H29  1  0.24767737  0.07517271  0.94721711  1  0.08838  0  0.118818  0.109918  0  0.992796  0
H  H30  1  0.99000709  0.83017325  0.33716903  1  0.076921  0  0.118741  0.109341  0  0.992656  0
H  H31  1  0.03559375  0.78421643  0.46507598  1  0.115155  0  0.119048  0.111506  0  0.989309  0
H  H32  1  0.19917471  0.99329727  0.31180212  1  0.077806  0  0.119227  0.111238  0  0.98934  0
H  H33  1  0.06900754  0.95167905  0.26441947  1  0.051332  0  0.118816  0.109427  0  0.993031  0
H  H34  1  0.18507598  0.82133065  0.51018604  1  0.093133  0  0.118889  0.110993  0  0.989681  0
H  H35  1  0.25847292  0.92889741  0.44608254  1  0.10511  0  0.118805  0.109534  0  0.99278  0
H  H36  1  0.01411681  0.20874826  0.08511944  1  0.060346  0  0.09667  0.096448  0  0.98994  0
H  H37  1  0.05602066  0.15767909  0.16429278  1  0.085701  0  0.099731  0.103511  0  1.005544  0
H  H38  1  0.01322334  0.22259949  0.18619064  1  0.051277  0  0.096201  0.097958  0  0.993358  0
H  H39  1  0.07146933  0.15060249  0.06297297  1  0.058934  0  0.111857  0.091719  0  0.997659  0
H  H40  1  0.48740634  0.79415614  0.58208189  1  0.03848  0  0.096481  0.096137  0  0.989748  0
H  H41  1  0.44394611  0.84172275  0.66283738  1  0.073701  0  0.099925  0.104533  0  1.003702  0
H  H42  1  0.47832111  0.77023798  0.68093610  1  0.027407  0  0.096232  0.098308  0  0.993488  0
H  H43  1  0.43192480  0.85473736  0.56182296  1  0.08643  0  0.111364  0.089759  0  0.998817  0
H  H44  1  0.94256367  0.75645018  0.33809136  1  0.070835  0  0.096252  0.095786  0  0.989924  0
H  H45  1  0.88962143  0.70476372  0.41145132  1  0.048701  0  0.099786  0.104411  0  1.00471  0
H  H46  1  0.95263445  0.74928038  0.43931282  1  0.060839  0  0.096208  0.098391  0  0.993195  0
H  H47  1  0.88834253  0.69767663  0.30905974  1  0.105401  0  0.111573  0.090273  0  0.998484  0
H  H48  1  0.56352562  0.24662676  0.83839355  1  0.029173  0  0.095887  0.095544  0  0.990104  0
H  H49  1  0.61960571  0.29490984  0.91102801  1  0.056717  0  0.099911  0.104502  0  1.005189  0
H  H50  1  0.55719048  0.24913701  0.94019447  1  0.044107  0  0.096775  0.099241  0  0.993506  0
H  H51  1  0.61619004  0.30616397  0.80902789  1  0.101395  0  0.111736  0.090703  0  0.99998  0
H  H52  1  0.07584773  0.02164749  0.21397420  1  0.044683  0  0.096699  0.096602  0  0.98981  0
H  H53  1  0.15467626  0.06427402  0.16036743  1  0.047646  0  0.100355  0.103979  0  1.003933  0
H  H54  1  0.17764190  0.02474476  0.22692641  1  0.063018  0  0.096841  0.098484  0  0.993396  0
H  H55  1  0.05270539  0.07847830  0.15517600  1  0.060905  0  0.111635  0.090998  0  0.998606  0
H  H56  1  0.67282529  0.43677354  0.75332370  1  0.020732  0  0.09645  0.096451  0  0.989394  0
H  H57  1  0.60139124  0.38638589  0.81054391  1  0.071632  0  0.100507  0.104703  0  1.002056  0
H  H58  1  0.57240459  0.44979067  0.76952818  1  0.050176  0  0.096599  0.098489  0  0.993521  0
H  H59  1  0.70462935  0.38476511  0.81292608  1  0.044919  0  0.111448  0.090934  0  0.997638  0
H  H60  1  0.42944222  0.98140054  0.71462328  1  0.02615  0  0.096524  0.096206  0  0.990733  0
H  H61  1  0.35013446  0.93956915  0.66200311  1  0.056343  0  0.099775  0.103419  0  1.00578  0
H  H62  1  0.32779693  0.97795828  0.72955893  1  0.042504  0  0.096505  0.098179  0  0.993081  0
H  H63  1  0.45181978  0.92373770  0.65547336  1  0.05615  0  0.111657  0.091247  0  0.997599  0
H  H64  1  0.82703652  0.56559495  0.25670897  1  0.0262  0  0.096882  0.09665  0  0.989846  0
H  H65  1  0.90234263  0.61548005  0.30850046  1  0.050307  0  0.10099  0.105342  0  1.001513  0
H  H66  1  0.92687033  0.54788835  0.27033405  1  0.069331  0  0.0967  0.09836  0  0.992387  0
H  H67  1  0.79943378  0.61934075  0.31570586  1  0.081086  0  0.111862  0.090508  0  0.999222  0
H  H68  1  0.20039752  0.07846695  0.02267287  1  0.052556  0  0.096651  0.096622  0  0.989306  0
H  H69  1  0.15448945  0.15979574  0.06682680  1  0.034884  0  0.100657  0.105298  0  1.002416  0
H  H70  1  0.22632725  0.17767229  0.03049197  1  0.029527  0  0.096655  0.098728  0  0.993104  0
H  H71  1  0.14125603  0.05823199  0.08046056  1  0.089286  0  0.111522  0.090258  0  0.99875  0
H  H72  1  0.75074062  0.67106799  0.45057671  1  0.051898  0  0.096539  0.095925  0  0.990213  0
H  H73  1  0.79895610  0.60012461  0.39321300  1  0.042859  0  0.100247  0.104393  0  1.005045  0
H  H74  1  0.75354127  0.56864416  0.45350155  1  0.029535  0  0.096633  0.098747  0  0.993056  0
H  H75  1  0.81026332  0.70274353  0.39808723  1  0.075984  0  0.111779  0.091436  0  0.998802  0
H  H76  1  0.75553888  0.32999167  0.94787310  1  0.028809  0  0.096917  0.096689  0  0.988379  0
H  H77  1  0.70506676  0.40199863  0.89393565  1  0.048124  0  0.100408  0.104028  0  1.004287  0
H  H78  1  0.74510753  0.43123186  0.95855237  1  0.030881  0  0.096961  0.098573  0  0.99252  0
H  H79  1  0.69769456  0.29902586  0.89411423  1  0.107952  0  0.111827  0.090749  0  0.998896  0
H  H80  1  0.30418810  0.92759751  0.52315165  1  0.069865  0  0.096967  0.097324  0  0.989463  0
H  H81  1  0.34853743  0.84593417  0.56814686  1  0.064241  0  0.100487  0.104984  0  1.002439  0
H  H82  1  0.27673555  0.82894571  0.53308078  1  0.022886  0  0.096953  0.098706  0  0.992449  0
H  H83  1  0.36345748  0.94721670  0.58181134  1  0.054136  0  0.111653  0.091034  0  0.996727  0
C  C84  1  0.52027273  0.68974614  0.66319222  1  0.423883  0  0.00338  -0.062875  0  3.954775  0
C  C85  1  0.51818572  0.72913418  0.63804886  1  -0.004689  0  -0.041553  0.016343  0  4.139032  0
C  C86  1  0.54967752  0.72252608  0.60403644  1  0.38034  0  0.004235  -0.058174  0  3.943618  0
C  C87  1  0.63690467  0.49696488  0.68524635  1  0.393669  0  0.004795  -0.057763  0  3.943431  0
C  C88  1  0.60675241  0.49034222  0.72063352  1  0.034744  0  -0.041798  0.015224  0  4.138707  0
C  C89  1  0.57726648  0.52611429  0.71662547  1  0.373507  0  0.003877  -0.060891  0  3.955004  0
C  C90  1  0.68334535  0.63902932  0.51216566  1  0.409737  0  0.004999  -0.055054  0  3.939385  0
C  C91  1  0.71130373  0.60403964  0.49927967  1  0.056324  0  -0.041485  0.015978  0  4.14274  0
C  C92  1  0.70206910  0.57057841  0.53080645  1  0.399921  0  0.003873  -0.061708  0  3.956849  0
C  C93  1  0.96632224  0.30077349  0.17413524  1  0.398452  0  0.00384  -0.06149  0  3.956473  0
C  C94  1  0.97492795  0.26593540  0.14434855  1  0.023756  0  -0.041838  0.014918  0  4.142324  0
C  C95  1  0.94888068  0.27653549  0.10718664  1  0.402115  0  0.004943  -0.055625  0  3.939581  0
C  C96  1  0.85785622  0.49971396  0.19121490  1  0.40253  0  0.003938  -0.058832  0  3.943682  0
C  C97  1  0.88859826  0.50617242  0.22579106  1  0.033182  0  -0.040672  0.017109  0  4.137547  0
C  C98  1  0.91451400  0.46753263  0.22452799  1  0.378345  0  0.003427  -0.062403  0  3.957024  0
C  C99  1  0.81876939  0.36203102  0.01372545  1  0.393105  0  0.004808  -0.056354  0  3.941654  0
C  C100  1  0.78789921  0.39521178  0.00306093  1  0.051775  0  -0.040595  0.01647  0  4.139263  0
C  C101  1  0.79208011  0.42574876  0.03811834  1  0.36646  0  0.003393  -0.062541  0  3.954401  0
C  C102  1  0.49946208  0.17923258  0.86769267  1  0.443575  0  0.004189  -0.057452  0  3.943396  0
C  C103  1  0.51137306  0.20777352  0.90278237  1  -0.031448  0  -0.040917  0.017144  0  4.141885  0
C  C104  1  0.47709726  0.20076648  0.93409077  1  0.40393  0  0.003046  -0.062421  0  3.954806  0
C  C105  1  0.34012897  0.02405302  0.80889681  1  0.435587  0  0.003497  -0.06193  0  3.95527  0
C  C106  1  0.36936820  0.01755230  0.77299183  1  0.068875  0  -0.041488  0.016  0  4.141055  0
C  C107  1  0.40554306  0.04641808  0.78224700  1  0.363156  0  0.004589  -0.056935  0  3.943688  0
C  C108  1  0.30702433  0.15790108  0.98798666  1  0.401871  0  0.003653  -0.062204  0  3.954643  0
C  C109  1  0.26630254  0.13411476  0.99008433  1  -0.004837  0  -0.041593  0.016195  0  4.138076  0
C  C110  1  0.27129891  0.10059006  0.95799285  1  0.404261  0  0.004333  -0.057854  0  3.945464  0
C  C111  1  0.00747339  0.82333027  0.36777789  1  0.383882  0  0.004397  -0.05668  0  3.940397  0
C  C112  1  0.99644833  0.79332748  0.40217535  1  0.081986  0  -0.040795  0.016942  0  4.139381  0
C  C113  1  0.03047681  0.80048086  0.43339743  1  0.356116  0  0.003484  -0.062725  0  3.956766  0
C  C114  1  0.16646051  0.97840770  0.30635299  1  0.385177  0  0.003725  -0.062143  0  3.954487  0
C  C115  1  0.13639994  0.98555760  0.27151241  1  0.070005  0  -0.041279  0.0165  0  4.140287  0
C  C116  1  0.09972316  0.95778280  0.28241137  1  0.420301  0  0.004799  -0.056727  0  3.941218  0
C  C117  1  0.19698882  0.84880515  0.48972150  1  0.39849  0  0.003293  -0.062302  0  3.956741  0
C  C118  1  0.23802250  0.87201961  0.49125160  1  0.00782  0  -0.041073  0.016719  0  4.137344  0
C  C119  1  0.23419765  0.90433938  0.45770391  1  0.366753  0  0.004961  -0.056683  0  3.94312  0
C  C120  1  0.00407862  0.22886517  0.15168569  1  -0.027446  0  -0.104519  -0.137714  0  4.051865  0
C  C121  1  0.02159516  0.20212592  0.11996785  1  -0.024326  0  -0.110351  -0.096494  0  4.112129  0
C  C122  1  0.05055218  0.16584995  0.12943705  1  -0.054545  0  -0.11866  -0.165135  0  4.134981  0
C  C123  1  0.07236636  0.14192779  0.09809982  1  0.284809  0  0.001641  -0.043346  0  4.009144  0
C  C124  1  0.49038678  0.76701124  0.64682831  1  0.007728  0  -0.103677  -0.137271  0  4.049475  0
C  C125  1  0.47752577  0.79799178  0.61680912  1  -0.027806  0  -0.109854  -0.096047  0  4.110437  0
C  C126  1  0.45022446  0.83525402  0.62773922  1  -0.022189  0  -0.117905  -0.165107  0  4.133  0
C  C127  1  0.43049998  0.86178313  0.59727134  1  0.278871  0  0.001944  -0.040307  0  4.010351  0
C  C128  1  0.95982949  0.76178232  0.40590289  1  -0.080452  0  -0.10511  -0.13976  0  4.051741  0
C  C129  1  0.93480540  0.74561980  0.37195296  1  -0.07553  0  -0.109508  -0.094753  0  4.110435  0
C  C130  1  0.89918684  0.71372739  0.37754952  1  0.036161  0  -0.118272  -0.166288  0  4.134328  0
C  C131  1  0.87785021  0.69307056  0.34348223  1  0.254037  0  0.001499  -0.041896  0  4.010162  0
C  C132  1  0.54876596  0.23833103  0.90661099  1  -0.041009  0  -0.105746  -0.140496  0  4.052748  0
C  C133  1  0.57273697  0.25578012  0.87226959  1  0.005733  0  -0.109617  -0.095469  0  4.115186  0
C  C134  1  0.60861364  0.28733395  0.87735650  1  0.022057  0  -0.118664  -0.166072  0  4.135603  0
C  C135  1  0.62824102  0.30949708  0.84294866  1  0.250883  0  0.002105  -0.040932  0  4.011323  0
C  C136  1  0.14312687  0.01442647  0.23375869  1  -0.092664  0  -0.10335  -0.136075  0  4.051783  0
C  C137  1  0.11077088  0.03010584  0.20675889  1  0.002832  0  -0.110076  -0.097639  0  4.112101  0
C  C138  1  0.11972232  0.05842711  0.16944621  1  -0.065998  0  -0.116554  -0.160872  0  4.132802  0
C  C139  1  0.08789609  0.07946110  0.14569260  1  0.358842  0  0.001595  -0.042224  0  4.007279  0
C  C140  1  0.60489848  0.45550005  0.75365247  1  -0.030385  0  -0.103153  -0.13683  0  4.046984  0
C  C141  1  0.63954100  0.43021918  0.76715623  1  -0.04741  0  -0.109385  -0.096195  0  4.104923  0
C  C142  1  0.63517034  0.39559158  0.79974176  1  -0.044066  0  -0.116039  -0.161216  0  4.130467  0
C  C143  1  0.66999966  0.37449178  0.81879465  1  0.383466  0  0.000702  -0.044745  0  4.010646  0
C  C144  1  0.36234883  0.98844990  0.73562352  1  -0.047905  0  -0.103312  -0.13607  0  4.048411  0
C  C145  1  0.39447891  0.97288403  0.70803400  1  -0.036538  0  -0.109876  -0.096296  0  4.109044  0
C  C146  1  0.38516901  0.94482982  0.67077161  1  -0.027463  0  -0.116385  -0.162207  0  4.134023  0
C  C147  1  0.41658618  0.92356980  0.64644005  1  0.338068  0  0.000925  -0.04277  0  4.009178  0
C  C148  1  0.89369411  0.54317473  0.25595316  1  -0.05156  0  -0.103137  -0.136071  0  4.046728  0
C  C149  1  0.86100804  0.57125277  0.26881639  1  -0.044328  0  -0.109288  -0.096524  0  4.10778  0
C  C150  1  0.86794620  0.60699313  0.29960774  1  -0.004214  0  -0.115598  -0.160683  0  4.127187  0
C  C151  1  0.83439565  0.62902853  0.31995869  1  0.309478  0  0.001296  -0.042677  0  4.010583  0
C  C152  1  0.22870702  0.14338551  0.01855408  1  -0.033828  0  -0.103334  -0.136925  0  4.049531  0
C  C153  1  0.19720608  0.11341350  0.03232672  1  -0.045881  0  -0.109863  -0.097094  0  4.109431  0
C  C154  1  0.16050662  0.12450110  0.06071746  1  0.081511  0  -0.116458  -0.162302  0  4.130588  0
C  C155  1  0.13432195  0.09380233  0.08182674  1  0.234432  0  0.001725  -0.041368  0  4.012835  0
C  C156  1  0.74261823  0.60193486  0.46294606  1  -0.024749  0  -0.1039  -0.137926  0  4.05107  0
C  C157  1  0.76008668  0.63744493  0.44053590  1  -0.067181  0  -0.110091  -0.095484  0  4.112939  0
C  C158  1  0.79143505  0.63364899  0.40487949  1  -0.005725  0  -0.117497  -0.164017  0  4.135648  0
C  C159  1  0.81321648  0.66877422  0.38568785  1  0.316121  0  0.001843  -0.04289  0  4.006068  0
C  C160  1  0.75822847  0.39817885  0.96569852  1  -0.027239  0  -0.10374  -0.135825  0  4.047901  0
C  C161  1  0.74437533  0.36362731  0.93997744  1  -0.016003  0  -0.110096  -0.098043  0  4.109814  0
C  C162  1  0.71382919  0.36823671  0.90395902  1  -0.006165  0  -0.116209  -0.160161  0  4.131787  0
C  C163  1  0.69350783  0.33339881  0.88322919  1  0.277236  0  0.002024  -0.041634  0  4.007914  0
C  C164  1  0.27497718  0.86300691  0.52030416  1  0.006344  0  -0.103413  -0.136276  0  4.045993  0
C  C165  1  0.30672777  0.89277471  0.53351212  1  -0.06889  0  -0.109839  -0.097848  0  4.10723  0
C  C166  1  0.34304471  0.88132469  0.56194291  1  -0.040672  0  -0.115812  -0.161549  0  4.127604  0
C  C167  1  0.36970956  0.91149564  0.58286293  1  0.345468  0  0.0015  -0.041719  0  4.008556  0
N  N168  1  0.56878417  0.68245266  0.60881465  1  -0.769471  0  -0.337569  -0.139196  0  3.775822  0
N  N169  1  0.55028222  0.66193163  0.64538542  1  -0.789969  0  -0.33988  -0.142122  0  3.779536  0
N  N170  1  0.58923855  0.55212305  0.68203013  1  -0.783651  0  -0.34007  -0.141167  0  3.779349  0
N  N171  1  0.62606467  0.53379317  0.66234126  1  -0.768646  0  -0.338459  -0.139857  0  3.779498  0
N  N172  1  0.67149961  0.58474555  0.56025781  1  -0.778018  0  -0.339658  -0.141746  0  3.777332  0
N  N173  1  0.65966130  0.62717519  0.54846265  1  -0.773861  0  -0.33807  -0.140936  0  3.775957  0
N  N174  1  0.92681050  0.31461008  0.11451649  1  -0.781139  0  -0.338044  -0.140023  0  3.77578  0
N  N175  1  0.93787898  0.32987115  0.15598134  1  -0.77096  0  -0.340945  -0.141803  0  3.778869  0
N  N176  1  0.90001869  0.44017249  0.19217221  1  -0.779004  0  -0.340403  -0.142205  0  3.783412  0
N  N177  1  0.86507151  0.46034636  0.17121985  1  -0.779024  0  -0.337991  -0.139799  0  3.772049  0
N  N178  1  0.82260045  0.41160959  0.06740060  1  -0.777465  0  -0.339152  -0.141773  0  3.777958  0
N  N179  1  0.83939409  0.37217287  0.05204596  1  -0.784159  0  -0.338229  -0.139951  0  3.776805  0
N  N180  1  0.44696356  0.17100021  0.91858615  1  -0.786373  0  -0.340717  -0.143372  0  3.776487  0
N  N181  1  0.46108349  0.15737114  0.87747567  1  -0.770624  0  -0.337933  -0.139712  0  3.776611  0
N  N182  1  0.39819135  0.06816115  0.82053532  1  -0.777396  0  -0.336904  -0.138225  0  3.775885  0
N  N183  1  0.35768757  0.05404633  0.83727712  1  -0.779956  0  -0.339961  -0.142429  0  3.781108  0
N  N184  1  0.31176072  0.10432967  0.93857446  1  -0.763745  0  -0.339424  -0.142318  0  3.777438  0
N  N185  1  0.33411210  0.13969927  0.95746492  1  -0.787135  0  -0.339688  -0.140456  0  3.780463  0
N  N186  1  0.05956128  0.83177479  0.41854115  1  -0.777793  0  -0.340757  -0.142808  0  3.779282  0
N  N187  1  0.04506811  0.84617388  0.37791382  1  -0.774308  0  -0.338127  -0.14004  0  3.777352  0
N  N188  1  0.10757287  0.93601661  0.32060011  1  -0.767313  0  -0.337425  -0.13994  0  3.774985  0
N  N189  1  0.14892729  0.94904512  0.33566284  1  -0.769842  0  -0.33962  -0.1414  0  3.778795  0
N  N190  1  0.19408498  0.90042255  0.43796805  1  -0.771994  0  -0.338691  -0.141248  0  3.771791  0
N  N191  1  0.17081779  0.86616582  0.45812374  1  -0.771698  0  -0.340143  -0.141525  0  3.781667  0
N  N192  1  0.09712611  0.10422531  0.10753325  1  -1.277104  0  -0.25649  0.030487  0  3.859793  0
N  N193  1  0.40679406  0.89991443  0.60792057  1  -1.268879  0  -0.257206  0.028552  0  3.857403  0
N  N194  1  0.84093984  0.66479223  0.34877090  1  -1.282665  0  -0.256124  0.033031  0  3.855328  0
N  N195  1  0.66496314  0.33807226  0.84725733  1  -1.284104  0  -0.256468  0.0313  0  3.855257  0
