# generated using pymatgen
data_CdP2H54C36S4(NO)4
_symmetry_space_group_name_H-M   'P 1'
_cell_length_a   9.27904148
_cell_length_b   11.56740994
_cell_length_c   12.69012863
_cell_angle_alpha   113.62046103
_cell_angle_beta   107.83595679
_cell_angle_gamma   90.23310094
_symmetry_Int_Tables_number   1
_chemical_formula_structural   CdP2H54C36S4(NO)4
_chemical_formula_sum   'Cd1 P2 H54 C36 S4 N4 O4'
_cell_volume   1175.37106203
_cell_formula_units_Z   1
loop_
 _symmetry_equiv_pos_site_id
 _symmetry_equiv_pos_as_xyz
  1  'x, y, z'
loop_
 _atom_site_type_symbol
 _atom_site_label
 _atom_site_symmetry_multiplicity
 _atom_site_fract_x
 _atom_site_fract_y
 _atom_site_fract_z
 _atom_site_occupancy
 _atom_site_hle17_bader_spin_density
 _atom_site_hle17_ddec_charge
 _atom_site_hle17_ddec_spin_density
 _atom_site_hle17_ddec_sum_bond_order
 _atom_site_hle17_magmom
 _atom_site_hse06_10hf_bader_charge
 _atom_site_hse06_10hf_bader_spin_density
 _atom_site_hse06_10hf_ddec_charge
 _atom_site_hse06_10hf_ddec_spin_density
 _atom_site_hse06_10hf_ddec_sum_bond_order
 _atom_site_hse06_10hf_magmom
 _atom_site_hse06_bader_spin_density
 _atom_site_hse06_ddec_charge
 _atom_site_hse06_ddec_spin_density
 _atom_site_hse06_ddec_sum_bond_order
 _atom_site_hse06_magmom
 _atom_site_pbe_bader_spin_density
 _atom_site_pbe_cm5_charge
 _atom_site_pbe_ddec_charge
 _atom_site_pbe_ddec_spin_density
 _atom_site_pbe_ddec_sum_bond_order
 _atom_site_pbe_magmom
Cd  Cd0  1  0.50000427  0.49999629  0.50000040  1  0  0.762926  0  2.218539  0  1.065638  0  0.610366  0  2.67063  0  0  0.647576  0  2.64507  0  0  0.60171  0.585153  0  2.686745  0
P  P1  1  0.50594842  0.36498605  0.23221838  1  0  1.023011  0  4.819565  0  2.362536  0  0.898183  0  5.343707  0  0  0.945788  0  5.315955  0  0  0.250208  0.865274  0  5.362245  0
P  P2  1  0.49405511  0.63501042  0.76777885  1  0  1.022908  0  4.819505  0  2.362655  0  0.89809  0  5.343676  0  0  0.945712  0  5.315901  0  0  0.250146  0.865182  0  5.362212  0
H  H3  1  0.19354650  0.28768879  0.13185163  1  0  0.025091  0  0.938306  0  0.043179  0  0.035433  0  1.005188  0  0  0.035525  0  1.005343  0  0  0.094912  0.035339  0  1.005182  0
H  H4  1  0.80645675  0.71231245  0.86814414  1  0  0.025081  0  0.93837  0  0.043341  0  0.035425  0  1.005207  0  0  0.035511  0  1.00538  0  0  0.094924  0.035328  0  1.0052  0
H  H5  1  0.12063974  0.06825206  0.09979675  1  0  0.066401  0  0.950283  0  -0.009843  0  0.08407  0  1.013673  0  0  0.085019  0  1.013828  0  0  0.087106  0.083234  0  1.013771  0
H  H6  1  0.87936401  0.93175110  0.90020376  1  0  0.066334  0  0.950288  0  -0.009889  0  0.084034  0  1.013654  0  0  0.084988  0  1.013803  0  0  0.087085  0.083201  0  1.013754  0
H  H7  1  0.30412074  0.13090828  0.21275018  1  0  0.073601  0  0.966308  0  0.070759  0  0.086  0  1.033643  0  0  0.087269  0  1.034134  0  0  0.079356  0.085041  0  1.033445  0
H  H8  1  0.69588263  0.86909298  0.78724956  1  0  0.073651  0  0.966249  0  0.070741  0  0.086024  0  1.033623  0  0  0.087291  0  1.034115  0  0  0.079375  0.085064  0  1.033427  0
H  H9  1  0.42984343  0.01373789  0.06351123  1  0  0.069317  0  0.944982  0  0.020066  0  0.086609  0  1.00944  0  0  0.08714  0  1.010225  0  0  0.089176  0.086169  0  1.008978  0
H  H10  1  0.57016027  0.98625860  0.93649156  1  0  0.069339  0  0.944884  0  0.020213  0  0.086583  0  1.009397  0  0  0.087115  0  1.010183  0  0  0.089156  0.086153  0  1.008924  0
H  H11  1  0.29561388  0.90536379  0.06332588  1  0  0.056049  0  0.949551  0  0.012013  0  0.078082  0  1.005545  0  0  0.078707  0  1.005648  0  0  0.085583  0.077507  0  1.005641  0
H  H12  1  0.70437990  0.09463476  0.93667086  1  0  0.056053  0  0.949592  0  0.012049  0  0.078063  0  1.005584  0  0  0.078693  0  1.005684  0  0  0.085558  0.077492  0  1.005682  0
H  H13  1  0.10781319  0.90103828  0.87545499  1  0  0.044496  0  0.953986  0  -0.014454  0  0.063507  0  1.018398  0  0  0.063845  0  1.019533  0  0  0.077771  0.063333  0  1.017357  0
H  H14  1  0.89219284  0.09896578  0.12454082  1  0  0.044556  0  0.954064  0  -0.01455  0  0.063535  0  1.01847  0  0  0.063873  0  1.019604  0  0  0.077799  0.063364  0  1.017428  0
H  H15  1  0.28249699  0.86694692  0.84994037  1  0  0.068335  0  0.949544  0  0.017747  0  0.083057  0  1.017412  0  0  0.084053  0  1.017692  0  0  0.082063  0.082215  0  1.017326  0
H  H16  1  0.71751035  0.13305140  0.15005992  1  0  0.068234  0  0.949692  0  0.017806  0  0.082958  0  1.017511  0  0  0.083952  0  1.017796  0  0  0.081997  0.082122  0  1.01742  0
H  H17  1  0.16536358  0.02364610  0.76778355  1  0  0.060101  0  0.957047  0  0.015532  0  0.074372  0  1.024236  0  0  0.075272  0  1.024608  0  0  0.08109  0.073491  0  1.024232  0
H  H18  1  0.83465436  0.97635490  0.23221599  1  0  0.060094  0  0.95701  0  0.015611  0  0.074397  0  1.024176  0  0  0.075298  0  1.024547  0  0  0.081126  0.073511  0  1.024174  0
H  H19  1  0.34715229  0.08927111  0.88084253  1  0  0.065396  0  0.935943  0  0.019783  0  0.083473  0  0.996218  0  0  0.084634  0  0.995928  0  0  0.087421  0.082613  0  0.996478  0
H  H20  1  0.65286056  0.91073191  0.11916220  1  0  0.06523  0  0.935952  0  0.019535  0  0.083307  0  0.996254  0  0  0.08447  0  0.995963  0  0  0.087332  0.082444  0  0.996517  0
H  H21  1  0.16401380  0.24626785  0.91815486  1  0  0.071883  0  0.956006  0  0.001834  0  0.088328  0  1.020805  0  0  0.08944  0  1.020628  0  0  0.089905  0.087583  0  1.020817  0
H  H22  1  0.83598200  0.75372970  0.08184037  1  0  0.071849  0  0.956047  0  0.001354  0  0.088279  0  1.02086  0  0  0.089386  0  1.020685  0  0  0.089913  0.087536  0  1.020873  0
H  H23  1  0.03903977  0.13400982  0.92299807  1  0  0.071413  0  0.930849  0  0.023627  0  0.092436  0  0.987198  0  0  0.092897  0  0.987838  0  0  0.093042  0.091978  0  0.986945  0
H  H24  1  0.96096662  0.86597799  0.07699818  1  0  0.071423  0  0.930846  0  0.023528  0  0.092428  0  0.987221  0  0  0.092888  0  0.98786  0  0  0.093034  0.091969  0  0.986969  0
H  H25  1  0.50913096  0.45848550  0.07443797  1  0  0.023638  0  0.953795  0  0.045745  0  0.032836  0  1.025638  0  0  0.033094  0  1.024831  0  0  0.100349  0.032579  0  1.026308  0
H  H26  1  0.49086435  0.54150920  0.92555847  1  0  0.023551  0  0.953792  0  0.045813  0  0.032831  0  1.025624  0  0  0.033088  0  1.024817  0  0  0.100342  0.032578  0  1.026292  0
H  H27  1  0.66803277  0.64479802  0.26109151  1  0  0.070926  0  0.96082  0  0.052165  0  0.083058  0  1.031194  0  0  0.08388  0  1.03175  0  0  0.083171  0.082383  0  1.030972  0
H  H28  1  0.33196355  0.35519665  0.73890119  1  0  0.070877  0  0.960802  0  0.052191  0  0.083058  0  1.031151  0  0  0.083883  0  1.031706  0  0  0.083192  0.082382  0  1.030934  0
H  H29  1  0.68549079  0.64346592  0.12582033  1  0  0.077068  0  0.936245  0  0.025154  0  0.097542  0  0.993128  0  0  0.097964  0  0.99391  0  0  0.093586  0.097126  0  0.992757  0
H  H30  1  0.31450550  0.35652875  0.87417157  1  0  0.077055  0  0.936198  0  0.025192  0  0.097538  0  0.993102  0  0  0.097957  0  0.993894  0  0  0.093591  0.097128  0  0.992726  0
H  H31  1  0.94372809  0.70147906  0.28146315  1  0  0.062108  0  0.933722  0  0.047286  0  0.08254  0  0.989449  0  0  0.083202  0  0.990192  0  0  0.085555  0.08191  0  0.989041  0
H  H32  1  0.05627032  0.29851462  0.71853042  1  0  0.062136  0  0.933644  0  0.04718  0  0.082531  0  0.989377  0  0  0.083198  0  0.990108  0  0  0.08554  0.081909  0  0.988965  0
H  H33  1  0.91652190  0.56766346  0.30996754  1  0  0.056032  0  0.952735  0  0.001774  0  0.075917  0  1.016096  0  0  0.076014  0  1.017767  0  0  0.08327  0.075676  0  1.015304  0
H  H34  1  0.08347213  0.43232550  0.69002181  1  0  0.056056  0  0.952691  0  0.002124  0  0.075859  0  1.016108  0  0  0.075952  0  1.017779  0  0  0.083246  0.075621  0  1.015316  0
H  H35  1  0.93628238  0.56441054  0.07156792  1  0  0.056533  0  0.951932  0  0.007538  0  0.076757  0  1.01342  0  0  0.076929  0  1.014699  0  0  0.085368  0.076584  0  1.012454  0
H  H36  1  0.06371678  0.43558122  0.92842510  1  0  0.056486  0  0.952017  0  0.007681  0  0.076763  0  1.013485  0  0  0.076933  0  1.014763  0  0  0.085358  0.076587  0  1.012522  0
H  H37  1  0.07619733  0.52347696  0.17583657  1  0  0.062565  0  0.963777  0  0.03625  0  0.078773  0  1.03041  0  0  0.079885  0  1.030183  0  0  0.076145  0.077912  0  1.030649  0
H  H38  1  0.92379449  0.47651205  0.82415391  1  0  0.062626  0  0.963723  0  0.036149  0  0.078812  0  1.030409  0  0  0.079919  0  1.030185  0  0  0.076183  0.077955  0  1.030648  0
H  H39  1  0.89588462  0.33540425  0.12975560  1  0  0.060846  0  0.946068  0  0.024194  0  0.079965  0  1.009664  0  0  0.080503  0  1.010829  0  0  0.085824  0.079669  0  1.008645  0
H  H40  1  0.10410398  0.66459150  0.87023588  1  0  0.060868  0  0.946122  0  0.02448  0  0.079978  0  1.009727  0  0  0.080516  0  1.010892  0  0  0.085807  0.079684  0  1.008706  0
H  H41  1  0.91396494  0.32983856  0.99349497  1  0  0.056623  0  0.947724  0  7.3e-05  0  0.076451  0  1.008765  0  0  0.077017  0  1.009217  0  0  0.086598  0.075918  0  1.008595  0
H  H42  1  0.08602493  0.67015238  0.00649344  1  0  0.05659  0  0.947768  0  0.000166  0  0.07643  0  1.008796  0  0  0.076995  0  1.009246  0  0  0.086574  0.075893  0  1.008621  0
H  H43  1  0.67147493  0.41678222  0.94646225  1  0  0.07567  0  0.945538  0  0.028235  0  0.091633  0  1.011941  0  0  0.092269  0  1.012453  0  0  0.087372  0.0911  0  1.011704  0
H  H44  1  0.32851497  0.58321447  0.05352905  1  0  0.075619  0  0.94569  0  0.028354  0  0.091629  0  1.01202  0  0  0.092261  0  1.01253  0  0  0.087366  0.091095  0  1.01179  0
H  H45  1  0.63730833  0.28052214  0.97117547  1  0  0.080562  0  0.938816  0  0.056048  0  0.09677  0  0.998589  0  0  0.09835  0  0.997815  0  0  0.092849  0.095511  0  0.999362  0
H  H46  1  0.36268399  0.71947546  0.02881588  1  0  0.080524  0  0.938772  0  0.056  0  0.096763  0  0.998492  0  0  0.098338  0  0.997714  0  0  0.092847  0.095515  0  0.999252  0
H  H47  1  0.63593013  0.74524020  0.48074854  1  0  0.077606  0  0.937413  0  0.104133  0  0.083945  0  1.005339  0  0  0.086657  0  1.002831  0  0  0.110583  0.081941  0  1.007495  0
H  H48  1  0.36406845  0.25476312  0.51926671  1  0  0.077701  0  0.937262  0  0.104663  0  0.083989  0  1.005249  0  0  0.0867  0  1.002747  0  0  0.110641  0.081984  0  1.007406  0
H  H49  1  0.13107970  0.79831923  0.61026046  1  0  0.106389  0  0.958919  0  0.118389  0  0.111952  0  1.028116  0  0  0.115517  0  1.024553  0  0  0.105645  0.109359  0  1.030536  0
H  H50  1  0.86891541  0.20169654  0.38974915  1  0  0.106385  0  0.958971  0  0.118441  0  0.111958  0  1.028156  0  0  0.11552  0  1.024596  0  0  0.105636  0.109367  0  1.030573  0
H  H51  1  0.11851938  0.61536558  0.66516560  1  0  0.11504  0  0.98062  0  0.155654  0  0.117202  0  1.0525  0  0  0.121096  0  1.050955  0  0  0.105446  0.11454  0  1.053484  0
H  H52  1  0.88148962  0.38466149  0.33486209  1  0  0.114992  0  0.980706  0  0.155778  0  0.117212  0  1.052535  0  0  0.121105  0  1.050992  0  0  0.105473  0.114545  0  1.053517  0
H  H53  1  0.85795314  0.50346673  0.62186078  1  0  0.077161  0  0.946742  0  0.10929  0  0.085382  0  1.013394  0  0  0.087473  0  1.011511  0  0  0.110475  0.083403  0  1.016039  0
H  H54  1  0.14205917  0.49655360  0.37816908  1  0  0.07718  0  0.946735  0  0.10915  0  0.085408  0  1.013395  0  0  0.087493  0  1.011527  0  0  0.110473  0.083425  0  1.016029  0
H  H55  1  0.77358629  0.91960965  0.46692458  1  0  0.074654  0  0.907902  0  0.105378  0  0.084183  0  0.968918  0  0  0.088517  0  0.963995  0  0  0.118494  0.081208  0  0.972183  0
H  H56  1  0.22640162  0.08038710  0.53307501  1  0  0.074651  0  0.907817  0  0.105385  0  0.084196  0  0.96884  0  0  0.08853  0  0.963917  0  0  0.118513  0.081221  0  0.972106  0
C  C57  1  0.24299252  0.20825041  0.07800037  1  0  0.253207  0  3.532284  0  0.408424  0  0.227871  0  3.786672  0  0  0.235866  0  3.797229  0  0  0.008726  0.222425  0  3.779286  0
C  C58  1  0.75701158  0.79174892  0.92199803  1  0  0.253112  0  3.532534  0  0.40815  0  0.227819  0  3.786816  0  0  0.235808  0  3.797372  0  0  0.008696  0.222382  0  3.77942  0
C  C59  1  0.24113050  0.09772082  0.11470935  1  0  -0.182691  0  3.685348  0  -0.025643  0  -0.223043  0  3.938401  0  0  -0.225643  0  3.951814  0  0  -0.173587  -0.221125  0  3.929239  0
C  C60  1  0.75887228  0.90227757  0.88528843  1  0  -0.182546  0  3.685249  0  -0.02568  0  -0.22293  0  3.938265  0  0  -0.22553  0  3.95168  0  0  -0.173544  -0.221017  0  3.929109  0
C  C61  1  0.30648368  0.98539744  0.03905162  1  0  -0.09532  0  3.67621  0  -0.008517  0  -0.13559  0  3.936264  0  0  -0.135955  0  3.950329  0  0  -0.169374  -0.135105  0  3.926375  0
C  C62  1  0.69351917  0.01460096  0.96094855  1  0  -0.095436  0  3.676385  0  -0.008639  0  -0.135637  0  3.936356  0  0  -0.136005  0  3.950421  0  0  -0.169347  -0.135158  0  3.926479  0
C  C63  1  0.22750138  0.94295375  0.90161917  1  0  -0.108751  0  3.678577  0  -0.00423  0  -0.146569  0  3.94148  0  0  -0.148082  0  3.956881  0  0  -0.171595  -0.145234  0  3.93041  0
C  C64  1  0.77250773  0.05704835  0.09837893  1  0  -0.108693  0  3.678939  0  -0.004244  0  -0.146444  0  3.941742  0  0  -0.147956  0  3.957144  0  0  -0.171543  -0.145132  0  3.930701  0
C  C65  1  0.22851202  0.05462926  0.86568206  1  0  -0.102013  0  3.6795  0  0.004235  0  -0.139033  0  3.936593  0  0  -0.139927  0  3.95097  0  0  -0.171517  -0.138365  0  3.926883  0
C  C66  1  0.77150055  0.94537280  0.13431911  1  0  -0.101792  0  3.679406  0  0.004513  0  -0.138877  0  3.936526  0  0  -0.139775  0  3.950903  0  0  -0.171465  -0.138195  0  3.926814  0
C  C67  1  0.16040177  0.16476583  0.94160592  1  0  -0.167204  0  3.672693  0  -0.005804  0  -0.212295  0  3.933087  0  0  -0.213808  0  3.945617  0  0  -0.166574  -0.211125  0  3.924364  0
C  C68  1  0.83960282  0.83523061  0.05838917  1  0  -0.167168  0  3.672856  0  -0.005206  0  -0.212253  0  3.933245  0  0  -0.213755  0  3.945768  0  0  -0.166579  -0.21109  0  3.924522  0
C  C69  1  0.63226834  0.45865923  0.11476821  1  0  0.25111  0  3.526693  0  0.384034  0  0.224976  0  3.780822  0  0  0.233364  0  3.79073  0  0  0.008503  0.219231  0  3.774018  0
C  C70  1  0.36772628  0.54133259  0.88522310  1  0  0.251189  0  3.526542  0  0.384522  0  0.224824  0  3.781147  0  0  0.233217  0  3.791041  0  0  0.008372  0.219076  0  3.774346  0
C  C71  1  0.71473303  0.59535497  0.18753632  1  0  -0.177522  0  3.672493  0  -0.041644  0  -0.219803  0  3.928688  0  0  -0.221812  0  3.942207  0  0  -0.170816  -0.218288  0  3.919426  0
C  C72  1  0.28526166  0.40463779  0.81245140  1  0  -0.177341  0  3.672387  0  -0.041623  0  -0.219684  0  3.928716  0  0  -0.221701  0  3.94223  0  0  -0.170771  -0.21817  0  3.919456  0
C  C73  1  0.88855313  0.60165823  0.23748822  1  0  -0.095059  0  3.682505  0  -0.021683  0  -0.134463  0  3.941615  0  0  -0.135344  0  3.956526  0  0  -0.170707  -0.133696  0  3.931378  0
C  C74  1  0.11144398  0.39833452  0.76250552  1  0  -0.095118  0  3.682404  0  -0.021157  0  -0.134313  0  3.94141  0  0  -0.135183  0  3.956311  0  0  -0.170649  -0.133549  0  3.931176  0
C  C75  1  0.95209088  0.52146899  0.13712027  1  0  -0.118723  0  3.686075  0  -0.043885  0  -0.155081  0  3.943878  0  0  -0.1565  0  3.958934  0  0  -0.17204  -0.153912  0  3.9333  0
C  C76  1  0.04789976  0.47852003  0.86286839  1  0  -0.118749  0  3.68612  0  -0.044882  0  -0.155209  0  3.944025  0  0  -0.156633  0  3.959085  0  0  -0.172108  -0.154041  0  3.933446  0
C  C77  1  0.87059504  0.38357368  0.06816909  1  0  -0.093439  0  3.674019  0  0.011792  0  -0.134064  0  3.93466  0  0  -0.134815  0  3.949216  0  0  -0.168904  -0.133409  0  3.924461  0
C  C78  1  0.12939389  0.61641824  0.93181948  1  0  -0.09352  0  3.674051  0  0.011524  0  -0.134144  0  3.934717  0  0  -0.134896  0  3.949258  0  0  -0.168858  -0.133483  0  3.924515  0
C  C79  1  0.69727486  0.37883761  0.01630214  1  0  -0.17133  0  3.656666  0  -0.050224  0  -0.213631  0  3.913096  0  0  -0.215507  0  3.925604  0  0  -0.167127  -0.212189  0  3.904496  0
C  C80  1  0.30271670  0.62115617  0.98368767  1  0  -0.171232  0  3.656535  0  -0.050836  0  -0.213449  0  3.912893  0  0  -0.215304  0  3.925377  0  0  -0.167056  -0.21202  0  3.904295  0
C  C81  1  0.74579531  0.72028645  0.52234574  1  0  0.095153  0  3.679427  0  0.544724  0  0.058932  0  3.925882  0  0  0.064517  0  3.946055  0  0  0.054493  0.053983  0  3.913016  0
C  C82  1  0.25420537  0.27972161  0.47767248  1  0  0.095203  0  3.679117  0  0.543355  0  0.058963  0  3.925569  0  0  0.064547  0  3.945741  0  0  0.05447  0.054013  0  3.912708  0
C  C83  1  0.88460938  0.78793548  0.54231177  1  0  -0.007095  0  3.80576  0  -0.030367  0  0.01785  0  4.035124  0  0  0.010908  0  4.061271  0  0  -0.003624  0.022479  0  4.016753  0
C  C84  1  0.11538595  0.21207551  0.45769693  1  0  -0.007279  0  3.805841  0  -0.029642  0  0.017827  0  4.035018  0  0  0.010887  0  4.06116  0  0  -0.003651  0.022456  0  4.016652  0
C  C85  1  0.02112709  0.74883480  0.59448932  1  0  -0.019573  0  3.657288  0  -0.035895  0  -0.046616  0  3.90138  0  0  -0.042985  0  3.919322  0  0  -0.052657  -0.046935  0  3.887807  0
C  C86  1  0.97886889  0.25117906  0.40552372  1  0  -0.019531  0  3.657201  0  -0.035247  0  -0.046629  0  3.901281  0  0  -0.042995  0  3.919218  0  0  -0.052686  -0.04695  0  3.887707  0
C  C87  1  0.01380203  0.64667114  0.62446765  1  0  -0.1236  0  3.735118  0  -0.034786  0  -0.135596  0  3.9921  0  0  -0.143704  0  4.014047  0  0  -0.082025  -0.130267  0  3.977399  0
C  C88  1  0.98620595  0.35335115  0.37555571  1  0  -0.12355  0  3.735252  0  -0.035652  0  -0.135618  0  3.992233  0  0  -0.143721  0  4.014167  0  0  -0.082008  -0.130289  0  3.977535  0
C  C89  1  0.87040236  0.58482453  0.60075717  1  0  0.137478  0  3.68624  0  0.479145  0  0.104618  0  3.939461  0  0  0.112296  0  3.957836  0  0  0.052124  0.097758  0  3.928806  0
C  C90  1  0.12960327  0.41519686  0.39926852  1  0  0.137475  0  3.686294  0  0.478302  0  0.104603  0  3.939545  0  0  0.112277  0  3.957926  0  0  0.052078  0.097751  0  3.928875  0
C  C91  1  0.88389408  0.89254921  0.50660200  1  0  0.102306  0  3.686508  0  0.630806  0  0.068384  0  3.944624  0  0  0.07586  0  3.95858  0  0  0.080865  0.064266  0  3.934072  0
C  C92  1  0.11609415  0.10744944  0.49339677  1  0  0.102426  0  3.686315  0  0.631024  0  0.068416  0  3.944466  0  0  0.075892  0  3.958421  0  0  0.080945  0.0643  0  3.933913  0
S  S93  1  0.58563313  0.29237997  0.35405452  1  0  -0.541006  0  1.904781  0  -0.738314  0  -0.494021  0  2.227491  0  0  -0.512877  0  2.213656  0  0  -0.203136  -0.481432  0  2.237087  0
S  S94  1  0.41437247  0.70761550  0.64594278  1  0  -0.541006  0  1.904786  0  -0.738238  0  -0.494035  0  2.227523  0  0  -0.512889  0  2.213681  0  0  -0.203155  -0.481442  0  2.237123  0
S  S95  1  0.39559461  0.51625693  0.28253690  1  0  -0.585386  0  1.898151  0  -0.756865  0  -0.541287  0  2.225133  0  0  -0.558566  0  2.20957  0  0  -0.217222  -0.529279  0  2.235653  0
S  S96  1  0.60441003  0.48373859  0.71746574  1  0  -0.585338  0  1.898102  0  -0.756928  0  -0.541232  0  2.22507  0  0  -0.558511  0  2.209498  0  0  -0.217188  -0.529222  0  2.235598  0
N  N97  1  0.73950941  0.62097940  0.55036805  1  0  -0.310395  0  3.320925  0  -1.288794  0  -0.232262  0  3.576378  0  0  -0.252259  0  3.600345  0  0  -0.328246  -0.217901  0  3.560307  0
N  N98  1  0.26049743  0.37903143  0.44965089  1  0  -0.310492  0  3.3204  0  -1.28771  0  -0.232331  0  3.575868  0  0  -0.252328  0  3.599837  0  0  -0.328229  -0.217964  0  3.559792  0
N  N99  1  0.01121605  0.95226320  0.52000688  1  0  -0.215652  0  3.072099  0  -0.798981  0  -0.18743  0  3.364185  0  0  -0.19691  0  3.380258  0  0  -0.214173  -0.180594  0  3.352336  0
N  N100  1  0.98877172  0.04773928  0.47999003  1  0  -0.21564  0  3.072178  0  -0.780117  0  -0.187417  0  3.364309  0  0  -0.196899  0  3.380383  0  0  -0.214269  -0.180582  0  3.352458  0
O  O101  1  0.40127883  0.25811858  0.10116283  1  0  -0.468524  0  2.245678  0  -1.30436  0  -0.383643  0  2.493624  0  0  -0.406146  0  2.489174  0  0  -0.206535  -0.368055  0  2.496308  0
O  O102  1  0.59872583  0.74187787  0.89883463  1  0  -0.468543  0  2.245785  0  -1.304206  0  -0.383581  0  2.493587  0  0  -0.406086  0  2.489143  0  0  -0.206554  -0.367989  0  2.496267  0
O  O103  1  0.65042254  0.39714512  0.19916597  1  0  -0.465962  0  2.254004  0  -1.29555  0  -0.381875  0  2.506131  0  0  -0.403743  0  2.500259  0  0  -0.204069  -0.366437  0  2.509466  0
O  O104  1  0.34957737  0.60285045  0.80082860  1  0  -0.465928  0  2.253927  0  -1.295864  0  -0.381896  0  2.506194  0  0  -0.403787  0  2.50034  0  0  -0.203977  -0.366487  0  2.509603  0
