# generated using pymatgen
data_CdH18C26S2(N3O2)2
_symmetry_space_group_name_H-M   'P 1'
_cell_length_a   10.03475952
_cell_length_b   11.59787007
_cell_length_c   11.76756375
_cell_angle_alpha   65.31374594
_cell_angle_beta   77.46660246
_cell_angle_gamma   77.07624375
_symmetry_Int_Tables_number   1
_chemical_formula_structural   CdH18C26S2(N3O2)2
_chemical_formula_sum   'Cd2 H36 C52 S4 N12 O8'
_cell_volume   1200.97484937
_cell_formula_units_Z   2
loop_
 _symmetry_equiv_pos_site_id
 _symmetry_equiv_pos_as_xyz
  1  'x, y, z'
loop_
 _atom_site_type_symbol
 _atom_site_label
 _atom_site_symmetry_multiplicity
 _atom_site_fract_x
 _atom_site_fract_y
 _atom_site_fract_z
 _atom_site_occupancy
 _atom_site_hle17_bader_spin_density
 _atom_site_hle17_ddec_charge
 _atom_site_hle17_ddec_spin_density
 _atom_site_hle17_ddec_sum_bond_order
 _atom_site_hle17_magmom
 _atom_site_hse06_10hf_bader_spin_density
 _atom_site_hse06_10hf_ddec_charge
 _atom_site_hse06_10hf_ddec_spin_density
 _atom_site_hse06_10hf_ddec_sum_bond_order
 _atom_site_hse06_10hf_magmom
 _atom_site_hse06_bader_spin_density
 _atom_site_hse06_ddec_charge
 _atom_site_hse06_ddec_spin_density
 _atom_site_hse06_ddec_sum_bond_order
 _atom_site_hse06_magmom
 _atom_site_pbe_bader_spin_density
 _atom_site_pbe_cm5_charge
 _atom_site_pbe_ddec_charge
 _atom_site_pbe_ddec_spin_density
 _atom_site_pbe_ddec_sum_bond_order
 _atom_site_pbe_magmom
Cd  Cd0  1  0.30169887  0.70439437  0.09564730  1  0  1.066942  0  1.677531  0  0  0.864499  0  2.117109  0  0  0.925546  0  2.067497  0  0  0.756666  0.822543  0  2.14966  0
Cd  Cd1  1  0.69830171  0.29560515  0.90435250  1  0  1.066934  0  1.677552  0  0  0.864488  0  2.117123  0  0  0.925531  0  2.067527  0  0  0.75667  0.822538  0  2.149674  0
H  H2  1  0.43143745  0.09484197  0.06378083  1  0  0.346333  0  0.911717  0  0  0.328582  0  0.972357  0  0  0.336765  0  0.965714  0  0  0.301755  0.322807  0  0.97702  0
H  H3  1  0.56856297  0.90515851  0.93621860  1  0  0.34636  0  0.911692  0  0  0.328607  0  0.972327  0  0  0.336793  0  0.965684  0  0  0.301768  0.322832  0  0.97699  0
H  H4  1  0.46563599  0.92579203  0.11224639  1  0  0.340777  0  0.915714  0  0  0.322437  0  0.97988  0  0  0.330025  0  0.973581  0  0  0.302024  0.317098  0  0.984246  0
H  H5  1  0.53436239  0.07420845  0.88775342  1  0  0.340782  0  0.915766  0  0  0.322441  0  0.979932  0  0  0.330031  0  0.97363  0  0  0.302032  0.317102  0  0.984297  0
H  H6  1  0.41160979  0.41170047  0.14755060  1  0  0.370156  0  0.851523  0  0  0.351299  0  0.913452  0  0  0.359164  0  0.906669  0  0  0.319925  0.346344  0  0.917278  0
H  H7  1  0.58839181  0.58829904  0.85244816  1  0  0.370108  0  0.851461  0  0  0.35125  0  0.9134  0  0  0.359115  0  0.906619  0  0  0.319901  0.346293  0  0.917228  0
H  H8  1  0.34850367  0.26313131  0.20841654  1  0  0.332836  0  0.924874  0  0  0.304368  0  1.005007  0  0  0.31371  0  0.997277  0  0  0.291794  0.297776  0  1.010496  0
H  H9  1  0.65149864  0.73687013  0.79158129  1  0  0.332887  0  0.924831  0  0  0.304422  0  1.004946  0  0  0.313765  0  0.997217  0  0  0.291865  0.297829  0  1.010437  0
H  H10  1  0.13471142  0.99142704  0.03324262  1  0  0.092691  0  0.957933  0  0  0.101977  0  1.02118  0  0  0.104674  0  1.018462  0  0  0.117441  0.100034  0  1.023065  0
H  H11  1  0.86528931  0.00857152  0.96675925  1  0  0.092672  0  0.957939  0  0  0.101972  0  1.021168  0  0  0.104672  0  1.018451  0  0  0.117421  0.10003  0  1.023053  0
H  H12  1  0.01564877  0.14308000  0.13916168  1  0  0.089489  0  0.998825  0  0  0.096865  0  1.066529  0  0  0.098893  0  1.067336  0  0  0.09703  0.095277  0  1.066416  0
H  H13  1  0.98435283  0.85691952  0.86083877  1  0  0.089477  0  0.998822  0  0  0.096845  0  1.066533  0  0  0.098872  0  1.06734  0  0  0.097025  0.095249  0  1.066428  0
H  H14  1  0.96782675  0.05601342  0.37614116  1  0  0.089313  0  0.944733  0  0  0.100637  0  1.005191  0  0  0.102622  0  1.004436  0  0  0.104981  0.099231  0  1.005883  0
H  H15  1  0.03217383  0.94398610  0.62385948  1  0  0.089357  0  0.944681  0  0  0.100658  0  1.005154  0  0  0.102642  0  1.004401  0  0  0.105001  0.099251  0  1.005848  0
H  H16  1  0.03735246  0.82168495  0.49629621  1  0  0.095892  0  0.967585  0  0  0.102933  0  1.037641  0  0  0.106267  0  1.036258  0  0  0.101402  0.1006  0  1.038727  0
H  H17  1  0.96264710  0.17831456  0.50370463  1  0  0.095895  0  0.967539  0  0  0.102935  0  1.037602  0  0  0.106266  0  1.036231  0  0  0.101393  0.100601  0  1.038691  0
H  H18  1  0.02593892  0.62080881  0.56530550  1  0  0.095203  0  0.974025  0  0  0.100685  0  1.044196  0  0  0.103798  0  1.043591  0  0  0.098401  0.098529  0  1.044516  0
H  H19  1  0.97406063  0.37919072  0.43469703  1  0  0.095174  0  0.974017  0  0  0.100646  0  1.044199  0  0  0.103769  0  1.043586  0  0  0.098392  0.098488  0  1.044525  0
H  H20  1  0.13348135  0.39441105  0.67532354  1  0  0.088103  0  0.989258  0  0  0.099208  0  1.049155  0  0  0.100234  0  1.050561  0  0  0.09966  0.09833  0  1.048386  0
H  H21  1  0.86651922  0.60558847  0.32467880  1  0  0.088108  0  0.989309  0  0  0.099217  0  1.049193  0  0  0.100241  0  1.050601  0  0  0.099669  0.098341  0  1.048423  0
H  H22  1  0.34490161  0.30344885  0.56447542  1  0  0.087215  0  1.012176  0  0  0.092896  0  1.082235  0  0  0.095649  0  1.081977  0  0  0.094548  0.09081  0  1.082778  0
H  H23  1  0.65509591  0.69655065  0.43552325  1  0  0.087204  0  1.012174  0  0  0.092889  0  1.082223  0  0  0.095642  0  1.081964  0  0  0.094557  0.090806  0  1.082766  0
H  H24  1  0.42996159  0.43903863  0.33925658  1  0  0.080804  0  0.958157  0  0  0.08691  0  1.02606  0  0  0.089616  0  1.023547  0  0  0.11333  0.085105  0  1.027396  0
H  H25  1  0.57003475  0.56096184  0.66074275  1  0  0.080864  0  0.958142  0  0  0.086964  0  1.026043  0  0  0.08967  0  1.023531  0  0  0.113359  0.085163  0  1.027376  0
H  H26  1  0.00366686  0.78862207  0.07572060  1  0  0.105203  0  0.974964  0  0  0.11473  0  1.039309  0  0  0.117494  0  1.038373  0  0  0.103238  0.113185  0  1.039471  0
H  H27  1  0.99633372  0.21137745  0.92428005  1  0  0.105239  0  0.974976  0  0  0.114768  0  1.039311  0  0  0.117532  0  1.038374  0  0  0.10326  0.113223  0  1.039474  0
H  H28  1  0.74952008  0.82573956  0.07309212  1  0  0.102111  0  0.953604  0  0  0.111365  0  1.017868  0  0  0.115279  0  1.014454  0  0  0.103479  0.108494  0  1.020472  0
H  H29  1  0.25048136  0.17426093  0.92690967  1  0  0.102126  0  0.953584  0  0  0.111386  0  1.017842  0  0  0.115301  0  1.014426  0  0  0.10348  0.108515  0  1.020447  0
H  H30  1  0.75242922  0.42454246  0.16592074  1  0  0.126904  0  0.954006  0  0  0.131639  0  1.023456  0  0  0.135919  0  1.019754  0  0  0.106545  0.12881  0  1.025627  0
H  H31  1  0.24757324  0.57545802  0.83407916  1  0  0.126899  0  0.953996  0  0  0.131635  0  1.023451  0  0  0.135914  0  1.019748  0  0  0.106524  0.128803  0  1.025624  0
H  H32  1  0.27062382  0.20601294  0.46092516  1  0  0.093089  0  0.972846  0  0  0.103223  0  1.037893  0  0  0.10591  0  1.037559  0  0  0.094123  0.101334  0  1.038177  0
H  H33  1  0.72937559  0.79398753  0.53907361  1  0  0.093104  0  0.972858  0  0  0.10326  0  1.037876  0  0  0.105947  0  1.037542  0  0  0.094133  0.10137  0  1.038161  0
H  H34  1  0.25355496  0.09154854  0.69663771  1  0  0.094778  0  0.948766  0  0  0.10602  0  1.009242  0  0  0.109384  0  1.006843  0  0  0.097755  0.103569  0  1.011369  0
H  H35  1  0.74644327  0.90845289  0.30336173  1  0  0.094834  0  0.948756  0  0  0.106071  0  1.009232  0  0  0.109437  0  1.006832  0  0  0.097791  0.103623  0  1.011357  0
H  H36  1  0.38143555  0.72720257  0.66298905  1  0  0.108703  0  0.954303  0  0  0.119232  0  1.01738  0  0  0.123009  0  1.013817  0  0  0.103276  0.116533  0  1.019783  0
H  H37  1  0.61856502  0.27279694  0.33701075  1  0  0.108759  0  0.95425  0  0  0.119278  0  1.017339  0  0  0.123058  0  1.013769  0  0  0.103279  0.11658  0  1.019742  0
C  C38  1  0.11041514  0.95910939  0.13569871  1  0  0.135434  0  3.687283  0  0  0.103839  0  3.941715  0  0  0.111413  0  3.958732  0  0  0.048824  0.099235  0  3.929992  0
C  C39  1  0.88958457  0.04088917  0.86430250  1  0  0.135382  0  3.687262  0  0  0.10378  0  3.941694  0  0  0.111349  0  3.958716  0  0  0.048811  0.099175  0  3.929969  0
C  C40  1  0.04451701  0.04213015  0.19531396  1  0  -0.101514  0  3.721646  0  0  -0.119067  0  3.978005  0  0  -0.125676  0  3.999503  0  0  -0.083414  -0.115232  0  3.964693  0
C  C41  1  0.95548255  0.95786937  0.80468687  1  0  -0.101439  0  3.721712  0  0  -0.118979  0  3.978052  0  0  -0.125587  0  3.99955  0  0  -0.083391  -0.115139  0  3.964746  0
C  C42  1  0.01821174  0.99334128  0.32656777  1  0  0.010257  0  3.728038  0  0  -0.007367  0  3.977508  0  0  -0.003541  0  3.996278  0  0  -0.064582  -0.010292  0  3.966408  0
C  C43  1  0.98178679  0.00665824  0.67343410  1  0  0.010204  0  3.728092  0  0  -0.007392  0  3.977542  0  0  -0.003565  0  3.996311  0  0  -0.064584  -0.010317  0  3.966443  0
C  C44  1  0.05590251  0.86283642  0.39355421  1  0  -0.1447  0  3.718559  0  0  -0.164628  0  3.968164  0  0  -0.172001  0  3.989432  0  0  -0.08253  -0.159842  0  3.955116  0
C  C45  1  0.94409720  0.13716214  0.60644784  1  0  -0.14469  0  3.718538  0  0  -0.164618  0  3.968127  0  0  -0.171991  0  3.989392  0  0  -0.082522  -0.159831  0  3.955083  0
C  C46  1  0.12223009  0.78510820  0.32725462  1  0  0.166428  0  3.798098  0  0  0.16156  0  4.039248  0  0  0.168565  0  4.060308  0  0  0.113563  0.157219  0  4.024797  0
C  C47  1  0.87776947  0.21489132  0.67274621  1  0  0.166441  0  3.79802  0  0  0.16158  0  4.039175  0  0  0.168586  0  4.060235  0  0  0.113586  0.157239  0  4.024726  0
C  C48  1  0.17347144  0.64785909  0.39502175  1  0  0.16878  0  3.795028  0  0  0.165997  0  4.036619  0  0  0.172113  0  4.057146  0  0  0.113792  0.16187  0  4.022689  0
C  C49  1  0.82652506  0.35214043  0.60497965  1  0  0.168735  0  3.794989  0  0  0.16594  0  4.036584  0  0  0.172057  0  4.057111  0  0  0.11379  0.161811  0  4.02266  0
C  C50  1  0.11629732  0.57784401  0.51838081  1  0  -0.143634  0  3.710161  0  0  -0.15872  0  3.954126  0  0  -0.165879  0  3.975562  0  0  -0.08485  -0.154079  0  3.939403  0
C  C51  1  0.88370121  0.42215552  0.48162106  1  0  -0.143558  0  3.710136  0  0  -0.158633  0  3.954104  0  0  -0.1658  0  3.975533  0  0  -0.084836  -0.153993  0  3.939381  0
C  C52  1  0.17627716  0.45178909  0.57983829  1  0  0.000822  0  3.730814  0  0  -0.016023  0  3.972013  0  0  -0.013177  0  3.992796  0  0  -0.072874  -0.017448  0  3.957354  0
C  C53  1  0.82372326  0.54821140  0.42016283  1  0  0.000803  0  3.730928  0  0  -0.016041  0  3.97212  0  0  -0.013196  0  3.992908  0  0  -0.072872  -0.017469  0  3.957462  0
C  C54  1  0.29237814  0.40009330  0.51761835  1  0  -0.125007  0  3.739505  0  0  -0.133634  0  3.983382  0  0  -0.140402  0  4.004132  0  0  -0.09054  -0.12919  0  3.968826  0
C  C55  1  0.70762127  0.59990718  0.48238211  1  0  -0.125018  0  3.739501  0  0  -0.13365  0  3.983378  0  0  -0.140417  0  4.004128  0  0  -0.090564  -0.129211  0  3.968823  0
C  C56  1  0.34079196  0.47485156  0.39354721  1  0  0.133284  0  3.716695  0  0  0.103467  0  3.971591  0  0  0.110245  0  3.989287  0  0  0.043678  0.099365  0  3.958839  0
C  C57  1  0.65920351  0.52514795  0.60645268  1  0  0.133184  0  3.7165  0  0  0.103376  0  3.9714  0  0  0.110154  0  3.989094  0  0  0.043604  0.099274  0  3.958646  0
C  C58  1  0.02246824  0.58484484  0.12516154  1  0  0.20813  0  3.870933  0  0  0.199202  0  4.120764  0  0  0.208648  0  4.142447  0  0  0.088554  0.192766  0  4.106158  0
C  C59  1  0.97753336  0.41515468  0.87483892  1  0  0.208113  0  3.871029  0  0  0.199204  0  4.120838  0  0  0.208651  0  4.14252  0  0  0.088554  0.192766  0  4.106229  0
C  C60  1  0.94918870  0.70943018  0.09586021  1  0  -0.177315  0  3.758636  0  0  -0.194323  0  4.016652  0  0  -0.199654  0  4.034317  0  0  -0.104661  -0.190974  0  4.004392  0
C  C61  1  0.05081274  0.29057030  0.90413988  1  0  -0.177384  0  3.758751  0  0  -0.194401  0  4.016766  0  0  -0.199733  0  4.03443  0  0  -0.1047  -0.191055  0  4.004504  0
C  C62  1  0.80750791  0.72949174  0.09441343  1  0  -0.067551  0  3.759834  0  0  -0.097933  0  4.019921  0  0  -0.094256  0  4.036672  0  0  -0.092205  -0.100362  0  4.008942  0
C  C63  1  0.19249251  0.27050875  0.90558770  1  0  -0.067526  0  3.75988  0  0  -0.097918  0  4.01996  0  0  -0.09424  0  4.036711  0  0  -0.092172  -0.100349  0  4.00898  0
C  C64  1  0.73671117  0.62777003  0.11925617  1  0  -0.086826  0  3.782637  0  0  -0.067193  0  4.029577  0  0  -0.077348  0  4.053575  0  0  -0.032691  -0.060937  0  4.013326  0
C  C65  1  0.26328941  0.37222949  0.88074448  1  0  -0.086797  0  3.782621  0  0  -0.067138  0  4.029537  0  0  -0.077293  0  4.05354  0  0  -0.032688  -0.060881  0  4.013286  0
C  C66  1  0.80837692  0.50189503  0.14978823  1  0  -0.090767  0  3.702716  0  0  -0.124879  0  3.958495  0  0  -0.12175  0  3.975723  0  0  -0.085725  -0.126087  0  3.945535  0
C  C67  1  0.19162350  0.49810545  0.85021205  1  0  -0.090824  0  3.702738  0  0  -0.124944  0  3.958531  0  0  -0.121816  0  3.97576  0  0  -0.085731  -0.126152  0  3.945574  0
C  C68  1  0.94929571  0.48193026  0.15463602  1  0  -0.062596  0  3.799294  0  0  -0.042621  0  4.055833  0  0  -0.047102  0  4.079367  0  0  -0.017341  -0.039881  0  4.039829  0
C  C69  1  0.05070486  0.51806926  0.84536463  1  0  -0.062541  0  3.799292  0  0  -0.042583  0  4.055841  0  0  -0.047062  0  4.079373  0  0  -0.017334  -0.039843  0  4.039839  0
C  C70  1  0.20153275  0.42440074  0.16438729  1  0  0.453422  0  3.822969  0  0  0.414205  0  4.121187  0  0  0.438476  0  4.131706  0  0  0.251761  0.398491  0  4.113365  0
C  C71  1  0.79846752  0.57560069  0.83561092  1  0  0.453527  0  3.823012  0  0  0.414284  0  4.121254  0  0  0.438555  0  4.13177  0  0  0.2518  0.39857  0  4.113431  0
C  C72  1  0.33574517  0.03124564  0.42809844  1  0  0.2098  0  3.865946  0  0  0.20525  0  4.115611  0  0  0.213419  0  4.138049  0  0  0.089202  0.199555  0  4.100399  0
C  C73  1  0.66425321  0.96875483  0.57190137  1  0  0.209804  0  3.866041  0  0  0.205293  0  4.115665  0  0  0.213463  0  4.138103  0  0  0.089178  0.199598  0  4.100453  0
C  C74  1  0.29429701  0.10183837  0.50486017  1  0  -0.167822  0  3.753847  0  0  -0.185891  0  4.011108  0  0  -0.19157  0  4.031235  0  0  -0.106141  -0.181467  0  3.997726  0
C  C75  1  0.70570138  0.89816211  0.49513964  1  0  -0.167814  0  3.754013  0  0  -0.18591  0  4.011264  0  0  -0.191589  0  4.031393  0  0  -0.106114  -0.181486  0  3.997878  0
C  C76  1  0.28561139  0.03820124  0.63547340  1  0  -0.071629  0  3.785057  0  0  -0.100249  0  4.042356  0  0  -0.097683  0  4.06186  0  0  -0.095237  -0.102667  0  4.031011  0
C  C77  1  0.71438699  0.96179923  0.36452555  1  0  -0.07171  0  3.785151  0  0  -0.100332  0  4.042464  0  0  -0.097763  0  4.061958  0  0  -0.09527  -0.102751  0  4.031119  0
C  C78  1  0.31655883  0.90374804  0.69312489  1  0  -0.074805  0  3.770355  0  0  -0.053531  0  4.011134  0  0  -0.063288  0  4.03518  0  0  -0.03285  -0.046793  0  3.995042  0
C  C79  1  0.68344042  0.09625340  0.30687436  1  0  -0.074696  0  3.770246  0  0  -0.053407  0  4.010996  0  0  -0.063164  0  4.035042  0  0  -0.032804  -0.046669  0  3.994905  0
C  C80  1  0.35672865  0.83125142  0.61771445  1  0  -0.109611  0  3.746181  0  0  -0.142094  0  3.998276  0  0  -0.139556  0  4.016304  0  0  -0.094726  -0.143343  0  3.985372  0
C  C81  1  0.64327059  0.16875001  0.38228480  1  0  -0.109727  0  3.746155  0  0  -0.14221  0  3.998259  0  0  -0.139673  0  4.016288  0  0  -0.094765  -0.143457  0  3.985359  0
C  C82  1  0.36593240  0.89505333  0.48727474  1  0  -0.060216  0  3.816973  0  0  -0.040172  0  4.072048  0  0  -0.044764  0  4.097312  0  0  -0.020072  -0.037124  0  4.055391  0
C  C83  1  0.63406685  0.10494810  0.51272366  1  0  -0.060263  0  3.817011  0  0  -0.040236  0  4.072092  0  0  -0.04483  0  4.097358  0  0  -0.020089  -0.037187  0  4.055441  0
C  C84  1  0.39701737  0.98882743  0.25454565  1  0  0.447611  0  3.844892  0  0  0.412141  0  4.147955  0  0  0.435049  0  4.158267  0  0  0.245602  0.396249  0  4.142117  0
C  C85  1  0.60298203  0.01117305  0.74545482  1  0  0.447697  0  3.844781  0  0  0.412234  0  4.147832  0  0  0.435141  0  4.158146  0  0  0.245649  0.396339  0  4.141996  0
C  C86  1  0.30772767  0.83752153  0.83391253  1  0  0.621183  0  3.943815  0  0  0.576664  0  4.228269  0  0  0.610938  0  4.223477  0  0  0.181718  0.553464  0  4.230873  0
C  C87  1  0.69227275  0.16247894  0.16608690  1  0  0.621167  0  3.943802  0  0  0.576635  0  4.22827  0  0  0.610912  0  4.223476  0  0  0.181704  0.553444  0  4.230874  0
C  C88  1  0.58568637  0.65255998  0.11197801  1  0  0.640637  0  3.905239  0  0  0.588844  0  4.196354  0  0  0.622933  0  4.190972  0  0  0.195698  0.566017  0  4.199112  0
C  C89  1  0.41431508  0.34744050  0.88802208  1  0  0.640665  0  3.905221  0  0  0.588849  0  4.196356  0  0  0.622939  0  4.190974  0  0  0.195689  0.566023  0  4.199118  0
S  S90  1  0.41862663  0.83131210  0.37183566  1  0  0.025204  0  2.431055  0  0  0.031012  0  2.742504  0  0  0.02878  0  2.745618  0  0  0.081775  0.032467  0  2.74188  0
S  S91  1  0.58137262  0.16868933  0.62816359  1  0  0.025186  0  2.431037  0  0  0.03099  0  2.742499  0  0  0.028758  0  2.745614  0  0  0.081759  0.032454  0  2.741874  0
S  S92  1  0.06401481  0.33813301  0.19466272  1  0  0.034454  0  2.390268  0  0  0.041903  0  2.703869  0  0  0.039933  0  2.705583  0  0  0.093956  0.043436  0  2.702655  0
S  S93  1  0.93598664  0.66186746  0.80533483  1  0  0.034443  0  2.390256  0  0  0.041898  0  2.70387  0  0  0.039928  0  2.705581  0  0  0.093965  0.043429  0  2.702657  0
N  N94  1  0.14994983  0.83364674  0.19995833  1  0  -0.363821  0  3.243879  0  0  -0.292898  0  3.50349  0  0  -0.313112  0  3.522457  0  0  -0.32369  -0.279336  0  3.489776  0
N  N95  1  0.85004886  0.16635182  0.80004307  1  0  -0.363793  0  3.243739  0  0  -0.292887  0  3.503375  0  0  -0.313103  0  3.522351  0  0  -0.323704  -0.279324  0  3.489661  0
N  N96  1  0.28159700  0.59524972  0.33290227  1  0  -0.359534  0  3.223136  0  0  -0.300502  0  3.484249  0  0  -0.318682  0  3.504216  0  0  -0.320691  -0.288192  0  3.470277  0
N  N97  1  0.71840083  0.40474787  0.66709798  1  0  -0.359481  0  3.222968  0  0  -0.300432  0  3.484062  0  0  -0.318613  0  3.504028  0  0  -0.320657  -0.288125  0  3.470094  0
N  N98  1  0.35288805  0.08132744  0.29763767  1  0  -0.493426  0  3.044725  0  0  -0.446962  0  3.3071  0  0  -0.468395  0  3.320919  0  0  -0.341267  -0.432252  0  3.298339  0
N  N99  1  0.64711120  0.91867399  0.70236073  1  0  -0.493489  0  3.044597  0  0  -0.447041  0  3.306966  0  0  -0.468479  0  3.320787  0  0  -0.341289  -0.432329  0  3.298204  0
N  N100  1  0.42448583  0.00469737  0.13321923  1  0  -0.650513  0  3.123218  0  0  -0.611713  0  3.358884  0  0  -0.633744  0  3.357258  0  0  -0.570653  -0.596423  0  3.360212  0
N  N101  1  0.57551546  0.99530406  0.86677964  1  0  -0.650562  0  3.12335  0  0  -0.611761  0  3.359015  0  0  -0.633787  0  3.357376  0  0  -0.570671  -0.596474  0  3.360344  0
N  N102  1  0.16247315  0.55030441  0.13071514  1  0  -0.499257  0  3.160384  0  0  -0.428352  0  3.433832  0  0  -0.455753  0  3.448399  0  0  -0.358493  -0.41068  0  3.423664  0
N  N103  1  0.83752829  0.44969606  0.86928410  1  0  -0.499276  0  3.160366  0  0  -0.428359  0  3.433797  0  0  -0.455761  0  3.448366  0  0  -0.358485  -0.410688  0  3.42363  0
N  N104  1  0.32970012  0.36248597  0.17597472  1  0  -0.634534  0  3.126003  0  0  -0.593682  0  3.375138  0  0  -0.615509  0  3.371751  0  0  -0.550247  -0.579257  0  3.376749  0
N  N105  1  0.67030353  0.63751354  0.82402281  1  0  -0.634618  0  3.126077  0  0  -0.593754  0  3.375218  0  0  -0.615582  0  3.371829  0  0  -0.550357  -0.579329  0  3.376832  0
O  O106  1  0.35427534  0.71761126  0.88096774  1  0  -0.632483  0  1.945379  0  0  -0.568673  0  2.180675  0  0  -0.597006  0  2.171994  0  0  -0.334785  -0.548997  0  2.185943  0
O  O107  1  0.64572406  0.28238922  0.11903188  1  0  -0.632468  0  1.945398  0  0  -0.568647  0  2.180687  0  0  -0.596985  0  2.172015  0  0  -0.334779  -0.548986  0  2.185962  0
O  O108  1  0.25414930  0.90178242  0.90255348  1  0  -0.652915  0  1.933452  0  0  -0.595477  0  2.169305  0  0  -0.623545  0  2.161258  0  0  -0.34535  -0.575755  0  2.17426  0
O  O109  1  0.74585214  0.09821806  0.09744661  1  0  -0.652932  0  1.933431  0  0  -0.595492  0  2.169291  0  0  -0.623562  0  2.161245  0  0  -0.345365  -0.575786  0  2.174255  0
O  O110  1  0.52379412  0.56033668  0.13274031  1  0  -0.611321  0  1.973058  0  0  -0.548093  0  2.208249  0  0  -0.574416  0  2.198836  0  0  -0.316355  -0.530406  0  2.213093  0
O  O111  1  0.47620661  0.43966188  0.86726071  1  0  -0.611336  0  1.973116  0  0  -0.548103  0  2.208314  0  0  -0.574428  0  2.198905  0  0  -0.316341  -0.530417  0  2.213162  0
O  O112  1  0.52157138  0.76908761  0.08357928  1  0  -0.680175  0  2.013242  0  0  -0.608905  0  2.251087  0  0  -0.636648  0  2.23993  0  0  -0.333521  -0.589504  0  2.25812  0
O  O113  1  0.47842919  0.23091191  0.91642136  1  0  -0.680211  0  2.013253  0  0  -0.608935  0  2.251103  0  0  -0.636675  0  2.239945  0  0  -0.333534  -0.589533  0  2.258138  0
