# generated using pymatgen
data_H12PbC8O5
_symmetry_space_group_name_H-M   'P 1'
_cell_length_a   7.24699305
_cell_length_b   7.86438597
_cell_length_c   8.63673152
_cell_angle_alpha   98.19446492
_cell_angle_beta   88.99195942
_cell_angle_gamma   89.98914421
_symmetry_Int_Tables_number   1
_chemical_formula_structural   H12PbC8O5
_chemical_formula_sum   'H24 Pb2 C16 O10'
_cell_volume   487.13161613
_cell_formula_units_Z   2
loop_
 _symmetry_equiv_pos_site_id
 _symmetry_equiv_pos_as_xyz
  1  'x, y, z'
loop_
 _atom_site_type_symbol
 _atom_site_label
 _atom_site_symmetry_multiplicity
 _atom_site_fract_x
 _atom_site_fract_y
 _atom_site_fract_z
 _atom_site_occupancy
 _atom_site_pbe_bader_spin_density
 _atom_site_pbe_cm5_charge
 _atom_site_pbe_ddec_charge
 _atom_site_pbe_ddec_spin_density
 _atom_site_pbe_ddec_sum_bond_order
 _atom_site_pbe_magmom
H  H0  1  0.35954785  0.65047356  0.28059292  1  0  0.293693  0.393503  0  0.940956  0
H  H1  1  0.64041443  0.35000227  0.71932673  1  0  0.293913  0.393344  0  0.940954  0
H  H2  1  0.13364206  0.64488433  0.28259078  1  0  0.293087  0.392269  0  0.9434  0
H  H3  1  0.86634283  0.35441945  0.71749184  1  0  0.293106  0.392413  0  0.943455  0
H  H4  1  0.25576252  0.07563858  0.52884690  1  0  0.103593  0.091567  0  0.957023  0
H  H5  1  0.74554353  0.92436632  0.47121547  1  0  0.103429  0.09144  0  0.957183  0
H  H6  1  0.95521972  0.18224336  0.46199506  1  0  0.087918  0.081378  0  1.009904  0
H  H7  1  0.45119065  0.80802481  0.54867231  1  0  0.088136  0.082282  0  1.007732  0
H  H8  1  0.04534850  0.81643791  0.53864335  1  0  0.088503  0.082075  0  1.008901  0
H  H9  1  0.54932487  0.19303623  0.45074034  1  0  0.088217  0.0828  0  1.006676  0
H  H10  1  0.05681734  0.33961066  0.36305137  1  0  0.087502  0.086927  0  1.025823  0
H  H11  1  0.56187758  0.65627465  0.64637649  1  0  0.089217  0.08634  0  1.02447  0
H  H12  1  0.94250353  0.65971054  0.63760695  1  0  0.08764  0.087761  0  1.025953  0
H  H13  1  0.43752533  0.34428242  0.35318515  1  0  0.088556  0.085641  0  1.024663  0
H  H14  1  0.95380560  0.09465759  0.17058239  1  0  0.081791  0.056869  0  1.049767  0
H  H15  1  0.45028767  0.90296397  0.83868791  1  0  0.081547  0.052834  0  1.060758  0
H  H16  1  0.04611589  0.90487236  0.82991438  1  0  0.081716  0.056524  0  1.050233  0
H  H17  1  0.54960830  0.09767814  0.16083698  1  0  0.081343  0.05241  0  1.062318  0
H  H18  1  0.07967649  0.94775624  0.26422221  1  0  0.092258  0.099555  0  1.010359  0
H  H19  1  0.57278068  0.04927457  0.73904639  1  0  0.092537  0.100393  0  1.002899  0
H  H20  1  0.92088209  0.05174329  0.73576956  1  0  0.092555  0.100088  0  1.009759  0
H  H21  1  0.42781892  0.95119261  0.26075740  1  0  0.093406  0.101458  0  1.001982  0
H  H22  1  0.25196242  0.99823402  0.03593849  1  0  0.102164  0.073678  0  1.005146  0
H  H23  1  0.74795630  0.00189704  0.96404099  1  0  0.102156  0.073535  0  1.005062  0
Pb  Pb24  1  0.25028262  0.58604842  0.92484046  1  0  0.642246  1.118925  0  1.902681  0
Pb  Pb25  1  0.74905785  0.41400684  0.07514147  1  0  0.642087  1.118842  0  1.903021  0
C  C26  1  0.25205041  0.20030131  0.48329297  1  0  -0.087107  -0.098818  0  3.851333  0
C  C27  1  0.74848742  0.79965090  0.51672587  1  0  -0.086823  -0.098434  0  3.850922  0
C  C28  1  0.07522395  0.20773702  0.38913522  1  0  -0.170197  -0.16768  0  3.923685  0
C  C29  1  0.57335759  0.78786797  0.61756004  1  0  -0.170606  -0.168803  0  3.925256  0
C  C30  1  0.92491370  0.79157821  0.61126365  1  0  -0.171079  -0.169489  0  3.9251  0
C  C31  1  0.42676862  0.21266362  0.38211735  1  0  -0.169924  -0.168458  0  3.92522  0
C  C32  1  0.07895683  0.08036487  0.23785039  1  0  -0.16765  -0.160993  0  3.924787  0
C  C33  1  0.57500593  0.91739176  0.76736373  1  0  -0.166511  -0.160075  0  3.92648  0
C  C34  1  0.92119792  0.91922348  0.76237142  1  0  -0.167932  -0.161797  0  3.924916  0
C  C35  1  0.42513061  0.08304085  0.23237869  1  0  -0.16717  -0.160737  0  3.927655  0
C  C36  1  0.25157202  0.10166359  0.13711523  1  0  -0.08403  -0.103388  0  3.862391  0
C  C37  1  0.74827604  0.89842236  0.86289027  1  0  -0.083872  -0.102434  0  3.861491  0
C  C38  1  0.25140663  0.33732470  0.62758707  1  0  0.21963  0.595338  0  4.116849  0
C  C39  1  0.74893440  0.66271966  0.37238371  1  0  0.21981  0.596451  0  4.11654  0
C  C40  1  0.25012085  0.26623397  0.06268324  1  0  0.233366  0.615644  0  4.063981  0
C  C41  1  0.74912540  0.73386370  0.93733853  1  0  0.233527  0.615272  0  4.064532  0
O  O42  1  0.40435220  0.38708058  0.68977407  1  0  -0.302518  -0.577676  0  2.251987  0
O  O43  1  0.90181371  0.59858772  0.31599994  1  0  -0.301267  -0.574069  0  2.256663  0
O  O44  1  0.59596449  0.61417663  0.30952362  1  0  -0.303566  -0.579172  0  2.250936  0
O  O45  1  0.09828636  0.40036776  0.68454868  1  0  -0.302059  -0.574394  0  2.256553  0
O  O46  1  0.09787048  0.32978671  0.02516980  1  0  -0.284858  -0.566945  0  2.280909  0
O  O47  1  0.59733589  0.66188670  0.96729924  1  0  -0.28285  -0.563887  0  2.303584  0
O  O48  1  0.90112520  0.67042114  0.97562169  1  0  -0.285275  -0.567087  0  2.279534  0
O  O49  1  0.40174760  0.33804295  0.03188634  1  0  -0.283152  -0.564289  0  2.301902  0
O  O50  1  0.24601571  0.67760830  0.22692154  1  0  -0.569994  -0.784505  0  2.036972  0
O  O51  1  0.75367214  0.32225531  0.77308663  1  0  -0.570207  -0.784429  0  2.036685  0
