# generated using pymatgen
data_MnH28C30(NO3)2
_symmetry_space_group_name_H-M   'P 1'
_cell_length_a   4.60922015
_cell_length_b   12.06268438
_cell_length_c   23.05985001
_cell_angle_alpha   95.27846630
_cell_angle_beta   90.00049971
_cell_angle_gamma   90.00009329
_symmetry_Int_Tables_number   1
_chemical_formula_structural   MnH28C30(NO3)2
_chemical_formula_sum   'Mn2 H56 C60 N4 O12'
_cell_volume   1276.68067660
_cell_formula_units_Z   2
loop_
 _symmetry_equiv_pos_site_id
 _symmetry_equiv_pos_as_xyz
  1  'x, y, z'
loop_
 _atom_site_type_symbol
 _atom_site_label
 _atom_site_symmetry_multiplicity
 _atom_site_fract_x
 _atom_site_fract_y
 _atom_site_fract_z
 _atom_site_occupancy
 _atom_site_hle17_ddec_charge
 _atom_site_hle17_ddec_spin_density
 _atom_site_hle17_ddec_sum_bond_order
 _atom_site_hle17_magmom
 _atom_site_hse06_10hf_ddec_charge
 _atom_site_hse06_10hf_ddec_spin_density
 _atom_site_hse06_10hf_ddec_sum_bond_order
 _atom_site_hse06_10hf_magmom
 _atom_site_hse06_ddec_charge
 _atom_site_hse06_ddec_spin_density
 _atom_site_hse06_ddec_sum_bond_order
 _atom_site_hse06_magmom
 _atom_site_pbe_cm5_charge
 _atom_site_pbe_ddec_charge
 _atom_site_pbe_ddec_spin_density
 _atom_site_pbe_ddec_sum_bond_order
 _atom_site_pbe_magmom
Mn  Mn0  1  0.00000451  0.00000055  0.99999871  1  1.2119  4.794801  1.723471  4.684  1.057265  4.721685  2.201586  4.549  1.114818  4.762814  2.131891  4.609  0.603525  1.012255  4.679802  2.252696  4.491
Mn  Mn1  1  0.49999350  0.99999944  0.50000093  1  1.211903  4.794795  1.723448  4.684  1.057278  4.721677  2.201589  4.549  1.114836  4.762806  2.13189  4.609  0.603556  1.012269  4.679792  2.252702  4.491
H  H2  1  0.56710560  0.06303206  0.23750764  1  0.096863  -3e-06  0.98391  0.0  0.105402  1.5e-05  1.050645  0.0  0.107984  1.3e-05  1.050592  0.0  0.096159  0.103602  1.9e-05  1.050734  0.0
H  H3  1  0.06711668  0.93696486  0.26249934  1  0.09688  5e-06  0.98386  0.0  0.105417  1.5e-05  1.050589  0.0  0.107998  1.3e-05  1.05053  0.0  0.096195  0.103616  1.9e-05  1.050678  0.0
H  H4  1  0.43287278  0.93696541  0.76249209  1  0.0969  1.1e-05  0.983872  0.0  0.10541  1.5e-05  1.050635  0.0  0.107992  1.3e-05  1.05058  0.0  0.096162  0.103609  1.9e-05  1.050723  0.0
H  H5  1  0.93288773  0.06303429  0.73749961  1  0.096875  1.2e-05  0.983884  0.0  0.105438  1.5e-05  1.050577  0.0  0.10802  1.3e-05  1.050521  0.0  0.09619  0.103637  1.9e-05  1.050666  0.0
H  H6  1  0.33287725  0.07731168  0.33497902  1  0.082128  -0.000252  0.975295  0.0  0.091835  -0.000269  1.039039  0.0  0.0951  -0.000285  1.036766  0.0  0.093157  0.089494  -0.000244  1.040714  0.0
H  H7  1  0.83289048  0.92268383  0.16502792  1  0.081872  -0.000251  0.975705  0.0  0.091769  -0.000269  1.039245  0.0  0.095037  -0.000285  1.036968  0.0  0.093136  0.089429  -0.000244  1.040916  0.0
H  H8  1  0.66710330  0.92268578  0.66502157  1  0.082126  -0.000247  0.975274  0.0  0.091853  -0.000269  1.039001  0.0  0.095119  -0.000285  1.036724  0.0  0.093146  0.089513  -0.000244  1.040671  0.0
H  H9  1  0.16710525  0.07731695  0.83497286  1  0.081888  -0.000246  0.975655  0.0  0.091772  -0.000269  1.039211  0.0  0.095037  -0.000285  1.03694  0.0  0.093126  0.089433  -0.000244  1.040877  0.0
H  H10  1  0.98295563  0.22714168  0.36390618  1  0.073126  -7.7e-05  0.990166  0.0  0.085217  -7.6e-05  1.054389  0.0  0.08759  -8.6e-05  1.054191  0.0  0.089763  0.08352  -6.3e-05  1.054632  0.0
H  H11  1  0.48296266  0.77285653  0.13609683  1  0.07301  -7.8e-05  0.99029  0.0  0.085161  -7.6e-05  1.054451  0.0  0.087551  -8.6e-05  1.054221  0.0  0.089753  0.08346  -6.3e-05  1.054704  0.0
H  H12  1  0.01703360  0.77286160  0.63609429  1  0.073021  -8.4e-05  0.990297  0.0  0.085167  -7.6e-05  1.054449  0.0  0.087547  -8.6e-05  1.054246  0.0  0.089752  0.08347  -6.3e-05  1.054692  0.0
H  H13  1  0.51701789  0.22714923  0.86390551  1  0.073036  -8.2e-05  0.990204  0.0  0.085224  -7.6e-05  1.054316  0.0  0.087598  -8.6e-05  1.054115  0.0  0.089786  0.083525  -6.3e-05  1.05456  0.0
H  H14  1  0.85973406  0.37046506  0.29719171  1  0.092582  -2e-06  0.965996  0.0  0.104133  -1e-06  1.026868  0.0  0.106292  0.0  1.026845  0.0  0.098548  0.102586  -0.0  1.026936  0.0
H  H15  1  0.35973256  0.62953301  0.20281238  1  0.092544  3e-06  0.965938  0.0  0.10407  -1e-06  1.026845  0.0  0.106223  -0.0  1.026824  0.0  0.098552  0.10253  -0.0  1.026894  0.0
H  H16  1  0.14025951  0.62953741  0.70280742  1  0.092584  -3e-06  0.966044  0.0  0.104141  -1e-06  1.026902  0.0  0.106298  -0.0  1.026882  0.0  0.098547  0.102593  -0.0  1.02697  0.0
H  H17  1  0.64026318  0.37046943  0.79718892  1  0.092613  6e-06  0.9659  0.0  0.104113  -0.0  1.026825  0.0  0.106267  -0.0  1.026807  0.0  0.09856  0.10257  -0.0  1.026881  0.0
H  H18  1  0.82823019  0.50158303  0.20245217  1  0.094212  -6e-06  0.963647  0.0  0.105239  -3e-06  1.025892  0.0  0.107515  -2e-06  1.025273  0.0  0.10004  0.103572  -2e-06  1.026433  0.0
H  H19  1  0.32822360  0.49841752  0.29755156  1  0.094223  4e-06  0.963727  0.0  0.105255  -3e-06  1.025931  0.0  0.107506  -2e-06  1.025373  0.0  0.100016  0.103572  -2e-06  1.026469  0.0
H  H20  1  0.17178073  0.49841947  0.79754566  1  0.094218  -9e-06  0.963568  0.0  0.105261  -3e-06  1.025779  0.0  0.107535  -2e-06  1.025166  0.0  0.100061  0.103583  -3e-06  1.026337  0.0
H  H21  1  0.67180034  0.50158077  0.70244865  1  0.094232  -1.2e-05  0.963641  0.0  0.105255  -3e-06  1.025871  0.0  0.107521  -2e-06  1.025273  0.0  0.100021  0.103564  -3e-06  1.026416  0.0
H  H22  1  0.89050565  0.58133270  0.10826743  1  0.077559  5e-06  0.975097  0.0  0.090267  9e-06  1.037018  0.0  0.092203  4e-06  1.037929  0.0  0.09192  0.088876  1.5e-05  1.036504  0.0
H  H23  1  0.39048982  0.41866957  0.39173693  1  0.07749  -0.0  0.975075  0.0  0.090196  9e-06  1.036996  0.0  0.092141  4e-06  1.037878  0.0  0.091937  0.088805  1.5e-05  1.036487  0.0
H  H24  1  0.10950094  0.41866564  0.89172975  1  0.077593  1e-06  0.975091  0.0  0.090334  9e-06  1.036979  0.0  0.092269  4e-06  1.03788  0.0  0.091941  0.088944  1.5e-05  1.036458  0.0
H  H25  1  0.60950375  0.58133618  0.60826583  1  0.077563  2e-06  0.975196  0.0  0.090322  9e-06  1.037047  0.0  0.092261  4e-06  1.037944  0.0  0.091984  0.08893  1.5e-05  1.036537  0.0
H  H26  1  0.22673643  0.49347612  0.03275352  1  0.072417  1.8e-05  0.972723  0.0  0.085681  3.3e-05  1.03277  0.0  0.088091  2.4e-05  1.031774  0.0  0.091324  0.083902  4.4e-05  1.033546  0.0
H  H27  1  0.72672424  0.50652264  0.46725167  1  0.072597  1.4e-05  0.972733  0.0  0.085903  3.3e-05  1.032704  0.0  0.088332  2.5e-05  1.031676  0.0  0.091414  0.084087  4.4e-05  1.033518  0.0
H  H28  1  0.77326148  0.50651639  0.96724335  1  0.072394  2.7e-05  0.972809  0.0  0.085696  3.3e-05  1.032802  0.0  0.088106  2.4e-05  1.031806  0.0  0.091329  0.08391  4.4e-05  1.033586  0.0
H  H29  1  0.27326716  0.49348562  0.53275079  1  0.072581  2.4e-05  0.972687  0.0  0.085873  3.3e-05  1.032677  0.0  0.088293  2.4e-05  1.031657  0.0  0.091405  0.084058  4.4e-05  1.033498  0.0
H  H30  1  0.50812896  0.32335938  0.05074608  1  0.099513  -0.000168  0.968878  0.0  0.110481  -0.000161  1.032101  0.0  0.113644  -0.000187  1.030628  0.0  0.099294  0.108136  -0.000128  1.033354  0.0
H  H31  1  0.00813193  0.67663667  0.44925946  1  0.099489  -0.000167  0.968804  0.0  0.110417  -0.000161  1.03208  0.0  0.113595  -0.000187  1.030591  0.0  0.099242  0.10807  -0.000128  1.033336  0.0
H  H32  1  0.49186894  0.67663229  0.94925162  1  0.099571  -0.000175  0.968943  0.0  0.110442  -0.000161  1.032257  0.0  0.113604  -0.000187  1.030788  0.0  0.099271  0.108116  -0.000127  1.03349  0.0
H  H33  1  0.99188333  0.32336579  0.55074097  1  0.099531  -0.00017  0.968855  0.0  0.110355  -0.000161  1.032236  0.0  0.113566  -0.000187  1.030709  0.0  0.099253  0.108011  -0.000127  1.033485  0.0
H  H34  1  0.79156054  0.11026767  0.15619288  1  0.113922  3.9e-05  0.920853  0.0  0.125455  0.000207  0.984441  0.0  0.127496  9.9e-05  0.983359  0.0  0.122157  0.123965  0.000331  0.985302  0.001
H  H35  1  0.29154895  0.88973449  0.34381173  1  0.113931  3.8e-05  0.920807  0.0  0.125509  0.000207  0.984382  0.0  0.127545  9.9e-05  0.983303  0.0  0.122155  0.124037  0.000331  0.985254  0.001
H  H36  1  0.20843736  0.88973063  0.84380690  1  0.113878  6.1e-05  0.920869  0.0  0.125451  0.000206  0.984423  0.0  0.127492  0.0001  0.983346  0.0  0.122171  0.123966  0.000331  0.985285  0.001
H  H37  1  0.70844028  0.11027376  0.65619116  1  0.113976  3.9e-05  0.92074  0.0  0.125555  0.000207  0.984306  0.0  0.127594  9.9e-05  0.98323  0.0  0.122195  0.124082  0.000331  0.985178  0.001
H  H38  1  0.80125745  0.19785482  0.09986813  1  0.12737  0.000111  0.91985  0.0  0.13607  0.000448  0.987608  0.001  0.138589  0.000219  0.986251  0.001  0.12693  0.134128  0.000727  0.988829  0.001
H  H39  1  0.30126531  0.80214984  0.40013706  1  0.127401  0.000101  0.919932  0.0  0.13616  0.000449  0.987647  0.001  0.138678  0.000219  0.986283  0.001  0.12697  0.134235  0.000727  0.988878  0.001
H  H40  1  0.19873178  0.80214430  0.90013212  1  0.127346  0.000125  0.919862  0.0  0.136053  0.000449  0.987634  0.001  0.138577  0.000219  0.986271  0.001  0.126921  0.134114  0.000727  0.988856  0.001
H  H41  1  0.69874128  0.19785511  0.59986350  1  0.127422  0.000104  0.919934  0.0  0.136201  0.000448  0.987628  0.001  0.138724  0.000219  0.986263  0.001  0.126996  0.134275  0.000726  0.98886  0.001
H  H42  1  0.03576673  0.79008590  0.08972748  1  0.076238  -0.000158  0.963502  0.0  0.090804  -2.3e-05  1.035795  0.0  0.091579  -0.000108  1.035397  0.0  0.095588  0.090208  7.2e-05  1.036177  0.0
H  H43  1  0.53578334  0.20991357  0.41027395  1  0.076276  -0.000173  0.963524  0.0  0.09084  -2.3e-05  1.035786  0.0  0.091614  -0.000108  1.035384  0.0  0.095608  0.090241  7.2e-05  1.036171  0.0
H  H44  1  0.96423768  0.20991659  0.91027078  1  0.076236  -0.00015  0.963466  0.0  0.090831  -2.3e-05  1.03573  0.0  0.091607  -0.000108  1.035331  0.0  0.095577  0.090233  7.2e-05  1.036113  0.0
H  H45  1  0.46422541  0.79008301  0.58972964  1  0.076167  -0.000161  0.963543  0.0  0.090773  -2.3e-05  1.035773  0.0  0.09155  -0.000108  1.035372  0.0  0.095571  0.090175  7.2e-05  1.036159  0.0
H  H46  1  0.26524697  0.69057358  0.04936418  1  0.069676  0.000651  0.949236  0.001  0.08829  0.000886  1.015439  0.001  0.088349  0.000667  1.015258  0.001  0.094626  0.088214  0.001112  1.015638  0.001
H  H47  1  0.76527011  0.30942860  0.45063778  1  0.069649  0.000647  0.949163  0.001  0.088249  0.000886  1.015375  0.001  0.088306  0.000667  1.0152  0.001  0.094587  0.088175  0.001112  1.015571  0.001
H  H48  1  0.73475310  0.30942805  0.95063533  1  0.069679  0.000657  0.949216  0.001  0.088296  0.000886  1.015418  0.001  0.088356  0.000667  1.015235  0.001  0.094631  0.08822  0.001112  1.015616  0.001
H  H49  1  0.23473864  0.69057133  0.54936425  1  0.069651  0.000655  0.949145  0.001  0.088246  0.000886  1.015369  0.001  0.088304  0.000667  1.01519  0.001  0.094604  0.088173  0.001113  1.015564  0.001
H  H50  1  0.92361591  0.72656328  0.01994930  1  0.087011  -0.000159  0.941046  0.0  0.106293  5e-05  1.003715  0.0  0.106495  -2.3e-05  1.004044  0.0  0.101659  0.106068  0.00013  1.003616  0.0
H  H51  1  0.42363154  0.27343657  0.48005152  1  0.087096  -0.000173  0.941009  0.0  0.106317  5e-05  1.003723  0.0  0.106519  -2.3e-05  1.004054  0.0  0.101689  0.106093  0.00013  1.003625  0.0
H  H52  1  0.07637982  0.27343502  0.98005048  1  0.087098  -0.000158  0.941079  0.0  0.106308  5e-05  1.003808  0.0  0.106508  -2.3e-05  1.00414  0.0  0.101675  0.106083  0.00013  1.003709  0.0
H  H53  1  0.57636853  0.72656502  0.51995059  1  0.087078  -0.000156  0.941004  0.0  0.106276  5e-05  1.003764  0.0  0.106477  -2.3e-05  1.004094  0.0  0.101675  0.106052  0.00013  1.003666  0.0
H  H54  1  0.40916950  0.88027492  0.03709446  1  0.365855  -0.00051  0.911454  0.0  0.341856  0.00024  0.978275  0.001  0.35269  -5e-05  0.967167  0.001  0.302685  0.334187  0.000519  0.986016  0.001
H  H55  1  0.90917936  0.11972321  0.46290885  1  0.365873  -0.000509  0.911448  0.0  0.341914  0.00024  0.978197  0.001  0.352746  -5e-05  0.967096  0.001  0.302725  0.334249  0.000519  0.985927  0.001
H  H56  1  0.59082624  0.11972425  0.96290276  1  0.365973  -0.000511  0.911285  0.0  0.341928  0.00024  0.978155  0.001  0.352758  -5e-05  0.967055  0.001  0.302709  0.334262  0.000519  0.985889  0.001
H  H57  1  0.09082072  0.88027833  0.53709717  1  0.365928  -0.000512  0.911276  0.0  0.341943  0.000239  0.978047  0.001  0.352772  -5.1e-05  0.966953  0.001  0.302768  0.33428  0.000518  0.985773  0.001
C  C58  1  0.34773203  0.21176306  0.21279623  1  0.14685  -6e-06  3.784867  0.0  0.133344  2.8e-05  4.033778  0.0  0.140708  1e-06  4.054935  0.0  0.094373  0.128514  5.1e-05  4.019345  0.0
C  C59  1  0.84773920  0.78823338  0.28720515  1  0.14661  -3.1e-05  3.784732  0.0  0.133257  2.7e-05  4.03365  0.0  0.140617  5e-06  4.054815  0.0  0.094295  0.128424  5.1e-05  4.019207  0.0
C  C60  1  0.65225285  0.78823441  0.78720307  1  0.146805  -7.3e-05  3.784755  0.0  0.133267  2.8e-05  4.033665  0.0  0.140629  3e-06  4.054827  0.0  0.094314  0.128436  5.1e-05  4.019228  0.0
C  C61  1  0.15227823  0.21176581  0.71279121  1  0.146607  -6.4e-05  3.78497  0.0  0.133221  2.8e-05  4.03383  0.0  0.140582  1e-06  4.054992  0.0  0.094308  0.128388  5.1e-05  4.019387  0.0
C  C62  1  0.41505426  0.13019236  0.24990131  1  -0.169783  4.8e-05  3.778511  0.0  -0.185808  6.5e-05  4.029267  0.0  -0.190891  5e-05  4.050074  0.0  -0.106839  -0.182465  8.8e-05  4.015195  0.0
C  C63  1  0.91506665  0.86980741  0.25010426  1  -0.169882  5e-05  3.778573  0.0  -0.185925  6.7e-05  4.029379  0.0  -0.191001  4.8e-05  4.050184  0.0  -0.106948  -0.182583  8.8e-05  4.015306  0.0
C  C64  1  0.58493280  0.86980678  0.75009764  1  -0.169809  7.4e-05  3.778527  0.0  -0.185811  6.5e-05  4.029312  0.0  -0.190891  4.9e-05  4.05012  0.0  -0.106851  -0.182466  8.8e-05  4.015236  0.0
C  C65  1  0.08494861  0.13019172  0.74989513  1  -0.16987  5.8e-05  3.778451  0.0  -0.185944  6.4e-05  4.029242  0.0  -0.191022  5e-05  4.050049  0.0  -0.106934  -0.182605  8.8e-05  4.015174  0.0
C  C66  1  0.28215880  0.13842150  0.30445575  1  -0.076375  -3.5e-05  3.818264  0.0  -0.089898  7e-06  4.071556  0.0  -0.089581  -2.7e-05  4.09181  0.0  -0.104548  -0.089854  4.3e-05  4.057701  0.0
C  C67  1  0.78217312  0.86157563  0.19555032  1  -0.076064  -3.9e-05  3.81835  0.0  -0.089753  5e-06  4.071651  0.0  -0.089442  -2.4e-05  4.091914  0.0  -0.104459  -0.089708  4.3e-05  4.057796  0.0
C  C68  1  0.71782826  0.86157928  0.69554459  1  -0.076424  -0.00012  3.818218  0.0  -0.089977  7e-06  4.07154  0.0  -0.089661  -2.6e-05  4.091795  0.0  -0.104568  -0.089933  4.3e-05  4.057687  0.0
C  C69  1  0.21782913  0.13842267  0.80444902  1  -0.076086  -0.000102  3.818424  0.0  -0.089763  7e-06  4.071739  0.0  -0.089451  -2.6e-05  4.092  0.0  -0.10449  -0.089719  4.3e-05  4.057882  0.0
C  C70  1  0.08500886  0.22432849  0.32126051  1  -0.111135  -2e-06  3.823421  0.0  -0.126511  3.4e-05  4.077835  0.0  -0.131287  1.1e-05  4.101249  0.0  -0.113067  -0.123354  6.7e-05  4.061951  0.0
C  C71  1  0.58501340  0.77566681  0.17874469  1  -0.110985  3e-06  3.823366  0.0  -0.126411  3.5e-05  4.07779  0.0  -0.131189  8e-06  4.101204  0.0  -0.113033  -0.123259  6.7e-05  4.061904  0.0
C  C72  1  0.91498037  0.77567148  0.67873936  1  -0.110976  5.3e-05  3.823448  0.0  -0.126394  3.4e-05  4.077878  0.0  -0.131177  9e-06  4.101286  0.0  -0.113001  -0.123238  6.7e-05  4.061995  0.0
C  C73  1  0.41498016  0.22433483  0.82125482  1  -0.111066  4.7e-05  3.82355  0.0  -0.126521  3.5e-05  4.077986  0.0  -0.131298  1e-05  4.101403  0.0  -0.113075  -0.123366  6.7e-05  4.0621  0.0
C  C74  1  0.01511136  0.30481003  0.28389130  1  -0.08271  7e-06  3.758127  0.0  -0.099454  1.9e-05  4.003401  0.0  -0.098846  5e-06  4.023008  0.0  -0.089395  -0.099648  3.1e-05  3.990019  0.0
C  C75  1  0.51511502  0.69518686  0.21611386  1  -0.082588  -2.9e-05  3.75823  0.0  -0.099256  1.8e-05  4.00355  0.0  -0.098647  9e-06  4.023161  0.0  -0.089303  -0.099449  3.1e-05  3.990167  0.0
C  C76  1  0.98488655  0.69519245  0.71610739  1  -0.082653  -5.1e-05  3.758042  0.0  -0.099367  1.8e-05  4.003341  0.0  -0.098759  8e-06  4.022954  0.0  -0.089388  -0.099562  3.2e-05  3.989957  0.0
C  C77  1  0.48489373  0.30481225  0.78388726  1  -0.082611  -8.2e-05  3.758261  0.0  -0.099256  1.9e-05  4.003568  0.0  -0.098648  6e-06  4.023181  0.0  -0.089324  -0.099451  3.1e-05  3.990182  0.0
C  C78  1  0.14757073  0.29934239  0.22908632  1  -0.037246  2.7e-05  3.813266  0.0  -0.029424  7.4e-05  4.054804  0.0  -0.032145  5.4e-05  4.077717  0.0  -0.021671  -0.027666  0.000105  4.039288  0.0
C  C79  1  0.64757248  0.70065297  0.27091812  1  -0.037153  5.2e-05  3.813464  0.0  -0.029448  7.4e-05  4.055157  0.0  -0.032166  5.3e-05  4.078069  0.0  -0.021707  -0.027695  0.000106  4.039647  0.0
C  C80  1  0.85242066  0.70065342  0.77091289  1  -0.037214  6.7e-05  3.812968  0.0  -0.029473  7.4e-05  4.054648  0.0  -0.032197  5.4e-05  4.077567  0.0  -0.021646  -0.027714  0.000106  4.039129  0.0
C  C81  1  0.35244495  0.29934451  0.72908031  1  -0.037202  7.5e-05  3.813438  0.0  -0.029527  7.3e-05  4.055134  0.0  -0.03225  5.6e-05  4.078053  0.0  -0.021701  -0.027771  0.000106  4.03962  0.0
C  C82  1  0.13269745  0.36711202  0.18061200  1  -0.038802  2e-06  3.81112  0.0  -0.031665  6.4e-05  4.053942  0.0  -0.034086  4.2e-05  4.076385  0.0  -0.022042  -0.030064  8.8e-05  4.038732  0.0
C  C83  1  0.63269452  0.63288751  0.31939134  1  -0.038919  3e-05  3.811095  0.0  -0.031814  6.4e-05  4.054131  0.0  -0.034234  4.3e-05  4.076571  0.0  -0.022135  -0.030212  8.8e-05  4.038917  0.0
C  C84  1  0.86729611  0.63288629  0.81938691  1  -0.038839  2.6e-05  3.811118  0.0  -0.031718  6.6e-05  4.054104  0.0  -0.034141  4.2e-05  4.076554  0.0  -0.022075  -0.030116  8.8e-05  4.038887  0.0
C  C85  1  0.36732074  0.36711246  0.68060853  1  -0.038863  1.7e-05  3.811029  0.0  -0.031719  6.5e-05  4.054044  0.0  -0.034141  4.2e-05  4.076491  0.0  -0.022104  -0.030118  8.8e-05  4.038823  0.0
C  C86  1  0.97705718  0.46273369  0.16994306  1  -0.087822  6.4e-05  3.758534  0.0  -0.107547  3.8e-05  4.009534  0.0  -0.106582  3.3e-05  4.02806  0.0  -0.091561  -0.10801  4.9e-05  3.996945  0.0
C  C87  1  0.47703698  0.53726284  0.33006071  1  -0.087974  -9e-06  3.758487  0.0  -0.107638  3.9e-05  4.009504  0.0  -0.106681  3.1e-05  4.028025  0.0  -0.091544  -0.108076  4.9e-05  3.996928  0.0
C  C88  1  0.02294290  0.53726631  0.83005463  1  -0.087815  2e-05  3.758539  0.0  -0.107517  3.7e-05  4.009547  0.0  -0.106552  3.3e-05  4.028076  0.0  -0.091538  -0.107973  4.9e-05  3.996956  0.0
C  C89  1  0.52296743  0.46273547  0.66993863  1  -0.087846  5.1e-05  3.758271  0.0  -0.107518  3.7e-05  4.009281  0.0  -0.106557  3.3e-05  4.02781  0.0  -0.0915  -0.107946  4.9e-05  3.996706  0.0
C  C90  1  0.01347228  0.50736252  0.11675031  1  -0.106741  -2.1e-05  3.825106  0.0  -0.121719  6.6e-05  4.078208  0.0  -0.126399  4.2e-05  4.102569  0.0  -0.110702  -0.118603  9.2e-05  4.061657  0.0
C  C91  1  0.51345853  0.49263857  0.38325290  1  -0.10652  4.5e-05  3.824695  0.0  -0.121499  6.7e-05  4.077819  0.0  -0.126173  4.3e-05  4.102184  0.0  -0.110728  -0.118382  9.2e-05  4.06125  0.0
C  C92  1  0.98653647  0.49263333  0.88324631  1  -0.106839  6.3e-05  3.825214  0.0  -0.121855  6.7e-05  4.078328  0.0  -0.126529  4.3e-05  4.102682  0.0  -0.110749  -0.118736  9.2e-05  4.061771  0.0
C  C93  1  0.48654154  0.50736722  0.61674770  1  -0.106727  2.8e-05  3.824959  0.0  -0.121764  6.8e-05  4.078077  0.0  -0.12644  4.2e-05  4.102436  0.0  -0.110811  -0.118646  9.2e-05  4.061507  0.0
C  C94  1  0.20320833  0.45746784  0.07423175  1  -0.088908  7.4e-05  3.835292  0.0  -0.10197  0.000101  4.087426  0.0  -0.102542  7.9e-05  4.109789  0.0  -0.106103  -0.101273  0.000134  4.072086  0.0
C  C95  1  0.70320099  0.54253420  0.42577531  1  -0.08929  5.5e-05  3.835182  0.0  -0.102387  0.000102  4.087278  0.0  -0.102973  7.6e-05  4.109647  0.0  -0.106267  -0.101657  0.000134  4.071953  0.0
C  C96  1  0.79679174  0.54252632  0.92576608  1  -0.088964  -9e-06  3.83533  0.0  -0.102047  0.000102  4.087426  0.0  -0.102621  7.7e-05  4.109789  0.0  -0.106162  -0.101345  0.000134  4.072093  0.0
C  C97  1  0.29680776  0.45747239  0.57422707  1  -0.089207  2.8e-05  3.835142  0.0  -0.102283  0.000101  4.087203  0.0  -0.102862  7.8e-05  4.109584  0.0  -0.106214  -0.101559  0.000134  4.071876  0.0
C  C98  1  0.36103547  0.36200322  0.08362522  1  -0.164172  -0.000208  3.778756  0.0  -0.183701  -0.000148  4.03445  0.0  -0.18802  -0.000169  4.054345  0.0  -0.106126  -0.180804  -0.000117  4.021084  0.0
C  C99  1  0.86102378  0.63799319  0.41637878  1  -0.164125  -0.000179  3.778637  0.0  -0.183552  -0.000149  4.034347  0.0  -0.187888  -0.000166  4.054246  0.0  -0.106026  -0.180652  -0.000117  4.020973  0.0
C  C100  1  0.63896027  0.63799093  0.91637347  1  -0.164155  -0.000112  3.778796  0.0  -0.183573  -0.000148  4.034513  0.0  -0.187894  -0.000168  4.054414  0.0  -0.106076  -0.180692  -0.000117  4.021133  0.0
C  C101  1  0.13898497  0.36200928  0.58362078  1  -0.164122  -0.000148  3.778498  0.0  -0.183459  -0.000147  4.034222  0.0  -0.18782  -0.00017  4.054105  0.0  -0.106062  -0.180559  -0.000118  4.020848  0.0
C  C102  1  0.32488726  0.31787566  0.13708352  1  0.153634  -5.6e-05  3.781143  0.0  0.139783  -4.5e-05  4.031321  0.0  0.147582  -7.1e-05  4.051481  0.0  0.097093  0.134636  -8e-06  4.017578  0.0
C  C103  1  0.82489078  0.68212652  0.36292245  1  0.15391  -7e-05  3.780956  0.0  0.139989  -4.6e-05  4.031378  0.0  0.147793  -7.1e-05  4.051538  0.0  0.097293  0.134837  -8e-06  4.01763  0.0
C  C104  1  0.67511064  0.68212015  0.86291526  1  0.153823  -0.000103  3.781056  0.0  0.139822  -4.6e-05  4.031328  0.0  0.147619  -7e-05  4.051495  0.0  0.097143  0.134675  -8e-06  4.017584  0.0
C  C105  1  0.17512882  0.31787428  0.63707702  1  0.153862  -9.8e-05  3.78089  0.0  0.139827  -4.6e-05  4.031337  0.0  0.147624  -7e-05  4.051514  0.0  0.097219  0.134677  -8e-06  4.017589  0.0
C  C106  1  0.65284886  0.15077915  0.12579031  1  -0.155093  0.000461  3.655448  0.001  -0.214873  0.000988  3.907427  0.001  -0.215459  0.00051  3.913379  0.001  -0.047575  -0.214359  0.001456  3.903659  0.001
C  C107  1  0.15285579  0.84921955  0.37421432  1  -0.15511  0.000474  3.655404  0.001  -0.214942  0.000989  3.907454  0.001  -0.215509  0.000511  3.913386  0.001  -0.047594  -0.214529  0.001457  3.903802  0.001
C  C108  1  0.34714470  0.84921832  0.87420942  1  -0.155017  0.00038  3.655399  0.001  -0.214863  0.000989  3.907325  0.001  -0.215437  0.000507  3.913248  0.001  -0.04759  -0.21437  0.001457  3.903579  0.001
C  C109  1  0.84714863  0.15078623  0.62578628  1  -0.155257  0.000461  3.655434  0.001  -0.215163  0.000989  3.907453  0.001  -0.215737  0.00051  3.913372  0.001  -0.04769  -0.214747  0.001457  3.903805  0.001
C  C110  1  0.50352749  0.06352884  0.08366054  1  0.707218  0.011424  3.791677  0.011  0.652124  0.019093  4.098473  0.017  0.687924  0.014242  4.089329  0.013  0.233238  0.626697  0.024592  4.104337  0.021
C  C111  1  0.00352360  0.93647224  0.41634222  1  0.707115  0.011423  3.79176  0.011  0.652097  0.019095  4.098493  0.017  0.687891  0.014244  4.089349  0.013  0.233266  0.626698  0.024595  4.104358  0.021
C  C112  1  0.49646825  0.93646946  0.91633880  1  0.707208  0.011425  3.791642  0.011  0.652083  0.019093  4.098478  0.017  0.687883  0.014244  4.089339  0.013  0.233229  0.626661  0.024593  4.104336  0.021
C  C113  1  0.99646996  0.06352685  0.58366020  1  0.707274  0.011417  3.791658  0.011  0.65219  0.019093  4.098509  0.017  0.68799  0.014243  4.089361  0.013  0.233282  0.626783  0.024593  4.104381  0.021
C  C114  1  0.10953957  0.75873721  0.04593234  1  -0.02233  0.001303  3.638541  0.002  -0.116905  0.00298  3.902542  0.002  -0.109475  0.002179  3.906223  0.002  -0.147215  -0.122059  0.003743  3.899923  0.003
C  C115  1  0.60955390  0.24125900  0.45406861  1  -0.022455  0.001349  3.638714  0.002  -0.116957  0.002978  3.902706  0.002  -0.109523  0.00218  3.906388  0.002  -0.147241  -0.122112  0.003742  3.90009  0.003
C  C116  1  0.89046484  0.24126358  0.95406800  1  -0.022372  0.001279  3.638648  0.002  -0.116916  0.002981  3.902616  0.002  -0.109485  0.002179  3.906293  0.002  -0.147219  -0.122071  0.003743  3.9  0.003
C  C117  1  0.39045486  0.75873928  0.54593246  1  -0.022306  0.001296  3.638607  0.002  -0.116807  0.00298  3.902588  0.002  -0.109373  0.002179  3.906266  0.002  -0.147218  -0.121962  0.003742  3.899973  0.003
N  N118  1  0.45495507  0.22549628  0.15766309  1  -0.141551  -7.1e-05  3.538395  0.0  -0.06272  0.000128  3.761902  0.0  -0.079796  2.1e-05  3.786859  0.0  -0.258468  -0.051138  0.000254  3.744726  0.0
N  N119  1  0.95496242  0.77449848  0.34234576  1  -0.141494  -6e-05  3.538154  0.0  -0.062825  0.000127  3.76198  0.0  -0.079913  2e-05  3.786946  0.0  -0.258554  -0.051194  0.000253  3.744783  0.0
N  N120  1  0.54503632  0.77450035  0.84233703  1  -0.141712  -4.1e-05  3.538542  0.0  -0.062667  0.000127  3.761888  0.0  -0.079745  2e-05  3.786857  0.0  -0.258449  -0.051077  0.000253  3.744706  0.0
N  N121  1  0.04505284  0.22550062  0.65765579  1  -0.141549  -4.5e-05  3.538535  0.0  -0.062679  0.000127  3.762137  0.0  -0.079756  2.1e-05  3.787103  0.0  -0.258502  -0.051055  0.000253  3.744942  0.0
O  O122  1  0.65308357  0.97785123  0.06398328  1  -0.682003  0.026273  2.034769  0.013  -0.609134  0.034717  2.286399  0.019  -0.639723  0.030719  2.272699  0.016  -0.31144  -0.586637  0.038503  2.295259  0.022
O  O123  1  0.15307669  0.02214914  0.43602100  1  -0.681891  0.026274  2.034861  0.013  -0.609058  0.034721  2.286461  0.019  -0.639641  0.030721  2.272758  0.016  -0.311465  -0.586572  0.038507  2.295322  0.022
O  O124  1  0.34691433  0.02214540  0.93601641  1  -0.681966  0.026278  2.034745  0.013  -0.609051  0.034719  2.286391  0.019  -0.639625  0.030719  2.272661  0.016  -0.311402  -0.586565  0.038505  2.295258  0.022
O  O125  1  0.84691688  0.97784992  0.56398358  1  -0.682014  0.026274  2.034834  0.013  -0.609112  0.03472  2.286404  0.019  -0.639704  0.03072  2.272722  0.016  -0.311462  -0.586618  0.038505  2.295255  0.022
O  O126  1  0.24493900  0.08139405  0.06913447  1  -0.629275  0.035069  2.064621  0.024  -0.567136  0.042396  2.33489  0.028  -0.5972  0.037337  2.322743  0.023  -0.297679  -0.545192  0.047436  2.342835  0.032
O  O127  1  0.74493347  0.91860897  0.43086577  1  -0.629315  0.035073  2.064704  0.024  -0.567228  0.0424  2.334987  0.028  -0.597284  0.037341  2.322834  0.023  -0.297723  -0.545285  0.047441  2.342919  0.032
O  O128  1  0.75505674  0.91860677  0.93086371  1  -0.629284  0.035072  2.064649  0.024  -0.567158  0.042395  2.334933  0.028  -0.597225  0.037335  2.322782  0.023  -0.297707  -0.545208  0.047435  2.342869  0.032
O  O129  1  0.25506010  0.08139012  0.56913665  1  -0.62926  0.035073  2.064673  0.024  -0.567125  0.042393  2.334898  0.028  -0.597188  0.037334  2.322746  0.023  -0.297669  -0.545172  0.047433  2.34283  0.032
O  O130  1  0.23723315  0.84550923  0.01563204  1  -0.54816  0.028779  2.215852  0.019  -0.472441  0.037194  2.471208  0.025  -0.495215  0.033247  2.458522  0.021  -0.395875  -0.455308  0.040958  2.47937  0.028
O  O131  1  0.73724409  0.15449127  0.48436936  1  -0.548225  0.028776  2.21614  0.019  -0.472498  0.037195  2.471393  0.025  -0.49528  0.033248  2.458724  0.021  -0.395917  -0.455359  0.040959  2.47954  0.028
O  O132  1  0.76276693  0.15448994  0.98436562  1  -0.548316  0.028786  2.215734  0.019  -0.472579  0.037196  2.471156  0.025  -0.495347  0.033249  2.458467  0.021  -0.395911  -0.455447  0.04096  2.479316  0.028
O  O133  1  0.26275598  0.84550946  0.51563488  1  -0.548247  0.028783  2.215757  0.019  -0.47256  0.037195  2.471159  0.025  -0.495334  0.033248  2.458483  0.021  -0.39595  -0.455428  0.04096  2.479315  0.028
