# generated using pymatgen
data_CdH15C16N3O8
_symmetry_space_group_name_H-M   'P 1'
_cell_length_a   10.25088978
_cell_length_b   9.83302853
_cell_length_c   10.90278689
_cell_angle_alpha   85.11876430
_cell_angle_beta   97.91127466
_cell_angle_gamma   119.99279172
_symmetry_Int_Tables_number   1
_chemical_formula_structural   CdH15C16N3O8
_chemical_formula_sum   'Cd2 H30 C32 N6 O16'
_cell_volume   942.57744364
_cell_formula_units_Z   2
loop_
 _symmetry_equiv_pos_site_id
 _symmetry_equiv_pos_as_xyz
  1  'x, y, z'
loop_
 _atom_site_type_symbol
 _atom_site_label
 _atom_site_symmetry_multiplicity
 _atom_site_fract_x
 _atom_site_fract_y
 _atom_site_fract_z
 _atom_site_occupancy
 _atom_site_pbe_bader_spin_density
 _atom_site_pbe_cm5_charge
 _atom_site_pbe_ddec_charge
 _atom_site_pbe_ddec_spin_density
 _atom_site_pbe_ddec_sum_bond_order
 _atom_site_pbe_magmom
Cd  Cd0  1  0.89771471  0.70252225  0.47533744  1  0  0.771782  0.966241  0  2.075101  0
Cd  Cd1  1  0.10227494  0.29748354  0.52466756  1  0  0.771771  0.966198  0  2.07502  0
H  H2  1  0.76650494  0.13805554  0.86334461  1  0  0.334796  0.372745  0  0.876851  0
H  H3  1  0.23347823  0.86192508  0.13665185  1  0  0.334844  0.372859  0  0.876781  0
H  H4  1  0.04501589  0.11153744  0.79852865  1  0  0.293032  0.349752  0  0.990369  0
H  H5  1  0.95499868  0.88845902  0.20147477  1  0  0.293017  0.349696  0  0.990563  0
H  H6  1  0.06216322  0.02784924  0.36902351  1  0  0.290549  0.383033  0  0.965779  0
H  H7  1  0.93784050  0.97216126  0.63098116  1  0  0.290602  0.383079  0  0.96571  0
H  H8  1  0.89171178  0.97636632  0.35428520  1  0  0.301422  0.401736  0  0.92999  0
H  H9  1  0.10828802  0.02363452  0.64570818  1  0  0.30143  0.401724  0  0.930011  0
H  H10  1  0.83752223  0.40791799  0.58979908  1  0  0.285888  0.38649  0  0.960554  0
H  H11  1  0.16246638  0.59207789  0.41019772  1  0  0.285833  0.386415  0  0.960676  0
H  H12  1  0.74496270  0.45967065  0.66211355  1  0  0.319949  0.40365  0  0.88101  0
H  H13  1  0.25502551  0.54032642  0.33788318  1  0  0.319934  0.403633  0  0.881002  0
H  H14  1  0.93956639  0.48519594  0.24305552  1  0  0.135732  0.114186  0  0.98883  0
H  H15  1  0.06045264  0.51483795  0.75695046  1  0  0.135718  0.114177  0  0.988854  0
H  H16  1  0.57067724  0.53532440  0.30508720  1  0  0.140024  0.124622  0  1.029058  0
H  H17  1  0.42932168  0.46467231  0.69491352  1  0  0.140038  0.124637  0  1.029054  0
H  H18  1  0.53783919  0.26882829  0.95039883  1  0  0.108664  0.121614  0  1.015899  0
H  H19  1  0.46218506  0.73119429  0.04960151  1  0  0.108655  0.121538  0  1.015784  0
H  H20  1  0.28938371  0.15416078  0.82038781  1  0  0.103027  0.118628  0  1.021008  0
H  H21  1  0.71063552  0.84584544  0.17961135  1  0  0.103037  0.118676  0  1.021055  0
H  H22  1  0.09610897  0.26216474  0.09890225  1  0  0.111127  0.132959  0  0.968977  0
H  H23  1  0.90390122  0.73781231  0.90110839  1  0  0.111107  0.132921  0  0.968973  0
H  H24  1  0.34199140  0.37515674  0.22804827  1  0  0.103727  0.107851  0  1.022984  0
H  H25  1  0.65802125  0.62483989  0.77195309  1  0  0.103771  0.107864  0  1.02284  0
H  H26  1  0.38711974  0.72694221  0.47477275  1  0  0.099987  0.088131  0  1.07838  0
H  H27  1  0.61286151  0.27304034  0.52522898  1  0  0.100049  0.08822  0  1.078209  0
H  H28  1  0.38514879  0.02066203  0.74596476  1  0  0.110456  0.127666  0  1.00349  0
H  H29  1  0.61483373  0.97932958  0.25402683  1  0  0.110434  0.1277  0  1.003404  0
H  H30  1  0.78280662  0.98408501  0.72917838  1  0  0.109843  0.123267  0  1.028403  0
H  H31  1  0.21717126  0.01589693  0.27081654  1  0  0.109842  0.123313  0  1.028208  0
C  C32  1  0.82792514  0.47456940  0.23281381  1  0  0.145249  0.146905  0  3.983753  0
C  C33  1  0.17209180  0.52545429  0.76718752  1  0  0.145155  0.14662  0  3.983984  0
C  C34  1  0.64024964  0.49908231  0.26672988  1  0  0.157366  0.078086  0  3.917924  0
C  C35  1  0.35975386  0.50092386  0.73327026  1  0  0.157279  0.078003  0  3.918032  0
C  C36  1  0.45727602  0.33463133  0.09495999  1  0  0.07988  0.104111  0  4.038941  0
C  C37  1  0.54274503  0.66538680  0.90503732  1  0  0.079708  0.104129  0  4.039223  0
C  C38  1  0.44129912  0.26871663  0.98167606  1  0  -0.088544  -0.131327  0  3.998978  0
C  C39  1  0.55872884  0.73130164  0.01831927  1  0  -0.088411  -0.131123  0  3.99895  0
C  C40  1  0.30125946  0.20350596  0.90969735  1  0  -0.111787  -0.221722  0  3.985022  0
C  C41  1  0.69875609  0.79650471  0.09030499  1  0  -0.111865  -0.221986  0  3.985074  0
C  C42  1  0.17640514  0.20339554  0.94986323  1  0  0.079435  0.324969  0  4.084019  0
C  C43  1  0.82360906  0.79660226  0.05013828  1  0  0.079501  0.325106  0  4.083764  0
C  C44  1  0.19345091  0.26628061  0.06554672  1  0  -0.102932  -0.186  0  3.971533  0
C  C45  1  0.80656603  0.73371465  0.93445699  1  0  -0.102922  -0.185961  0  3.971437  0
C  C46  1  0.33271280  0.33126487  0.13717926  1  0  -0.093551  -0.14927  0  4.040106  0
C  C47  1  0.66729646  0.66874077  0.86282706  1  0  -0.093556  -0.149315  0  4.040055  0
C  C48  1  0.66685051  0.77849529  0.53438797  1  0  0.199769  0.568336  0  4.213137  0
C  C49  1  0.33314209  0.22150427  0.46562116  1  0  0.199877  0.56848  0  4.213235  0
C  C50  1  0.59213303  0.84874145  0.59461941  1  0  -0.025596  -0.02869  0  4.023887  0
C  C51  1  0.40785475  0.15125052  0.40538196  1  0  -0.025635  -0.028688  0  4.023777  0
C  C52  1  0.44252450  0.80671809  0.55150787  1  0  -0.091436  -0.133264  0  3.997521  0
C  C53  1  0.55745346  0.19326590  0.44849070  1  0  -0.091485  -0.133297  0  3.99725  0
C  C54  1  0.36750377  0.86704161  0.60628088  1  0  -0.021179  -0.030945  0  4.024212  0
C  C55  1  0.63248411  0.13294899  0.39370858  1  0  -0.021132  -0.03089  0  4.024153  0
C  C56  1  0.20668852  0.81871917  0.56172391  1  0  0.20674  0.578962  0  4.188759  0
C  C57  1  0.79329916  0.18127067  0.43827474  1  0  0.206785  0.579163  0  4.188461  0
C  C58  1  0.44359989  0.97358756  0.70311795  1  0  -0.08263  -0.177227  0  3.876959  0
C  C59  1  0.55638619  0.02640090  0.29688329  1  0  -0.082735  -0.177442  0  3.877042  0
C  C60  1  0.59425086  0.01806948  0.74495232  1  0  0.081312  0.314911  0  4.074715  0
C  C61  1  0.40572614  0.98191460  0.25504522  1  0  0.081377  0.314973  0  4.074223  0
C  C62  1  0.66757938  0.95345724  0.69224991  1  0  -0.095119  -0.222403  0  3.946542  0
C  C63  1  0.33240830  0.04652634  0.30775344  1  0  -0.095147  -0.222541  0  3.946213  0
N  N64  1  0.59982370  0.40648574  0.16854099  1  0  -0.110858  0.150348  0  3.756884  0
N  N65  1  0.40019745  0.59353452  0.83145905  1  0  -0.110777  0.150227  0  3.756851  0
N  N66  1  0.71918165  0.39031573  0.14536977  1  0  -0.21643  -0.251615  0  3.068842  0
N  N67  1  0.28083859  0.60971279  0.85463002  1  0  -0.216335  -0.251272  0  3.068733  0
N  N68  1  0.78405068  0.54373924  0.30995119  1  0  -0.358365  -0.347243  0  3.526651  0
N  N69  1  0.21595334  0.45627589  0.69005435  1  0  -0.35824  -0.347037  0  3.526628  0
O  O70  1  0.79944666  0.80497108  0.58740970  1  0  -0.337074  -0.583276  0  2.341623  0
O  O71  1  0.20054659  0.19503623  0.41259109  1  0  -0.337155  -0.58344  0  2.341482  0
O  O72  1  0.60269432  0.69730363  0.43962133  1  0  -0.326097  -0.551198  0  2.131864  0
O  O73  1  0.39730309  0.30269207  0.56037739  1  0  -0.32608  -0.551167  0  2.132332  0
O  O74  1  0.13440178  0.71416825  0.47728034  1  0  -0.323727  -0.562309  0  2.253399  0
O  O75  1  0.86558223  0.28582430  0.52271416  1  0  -0.323665  -0.562365  0  2.253318  0
O  O76  1  0.14034325  0.87902398  0.60741561  1  0  -0.320569  -0.565137  0  2.241761  0
O  O77  1  0.85964572  0.12097501  0.39257198  1  0  -0.320656  -0.565248  0  2.241606  0
O  O78  1  0.66560743  0.12485796  0.83796225  1  0  -0.35113  -0.448183  0  2.241731  0
O  O79  1  0.33437878  0.87513103  0.16203257  1  0  -0.3512  -0.448278  0  2.241446  0
O  O80  1  0.03929604  0.14508075  0.88139983  1  0  -0.370059  -0.486089  0  2.317412  0
O  O81  1  0.96072129  0.85491499  0.11861219  1  0  -0.370047  -0.486081  0  2.317389  0
O  O82  1  0.95941086  0.93381754  0.34384832  1  0  -0.567757  -0.760261  0  2.143141  0
O  O83  1  0.04059346  0.06618625  0.65615196  1  0  -0.567784  -0.760309  0  2.143188  0
O  O84  1  0.84190491  0.49921299  0.63006883  1  0  -0.574957  -0.753023  0  2.037748  0
O  O85  1  0.15808775  0.50078504  0.36993023  1  0  -0.574895  -0.752927  0  2.037824  0
