# generated using pymatgen
data_CdH19C26N5O4
_symmetry_space_group_name_H-M   'P 1'
_cell_length_a   9.44150859
_cell_length_b   12.34662103
_cell_length_c   23.28215094
_cell_angle_alpha   90.00077588
_cell_angle_beta   90.00036019
_cell_angle_gamma   111.03832637
_symmetry_Int_Tables_number   1
_chemical_formula_structural   CdH19C26N5O4
_chemical_formula_sum   'Cd4 H76 C104 N20 O16'
_cell_volume   2533.10225222
_cell_formula_units_Z   4
loop_
 _symmetry_equiv_pos_site_id
 _symmetry_equiv_pos_as_xyz
  1  'x, y, z'
loop_
 _atom_site_type_symbol
 _atom_site_label
 _atom_site_symmetry_multiplicity
 _atom_site_fract_x
 _atom_site_fract_y
 _atom_site_fract_z
 _atom_site_occupancy
 _atom_site_pbe_bader_charge
 _atom_site_pbe_bader_spin_density
 _atom_site_pbe_cm5_charge
 _atom_site_pbe_ddec_charge
 _atom_site_pbe_ddec_spin_density
 _atom_site_pbe_ddec_sum_bond_order
 _atom_site_pbe_magmom
Cd  Cd0  1  0.92067835  0.89393333  0.84698325  1  1.225294  0  0.774388  0.84833  0  2.224691  0
Cd  Cd1  1  0.57930942  0.60606256  0.34698288  1  1.225114  0  0.774376  0.84838  0  2.224703  0
Cd  Cd2  1  0.07932493  0.10606768  0.15301727  1  1.225268  0  0.774413  0.848321  0  2.22475  0
Cd  Cd3  1  0.42069171  0.39393839  0.65301550  1  1.225191  0  0.774403  0.848458  0  2.224682  0
H  H4  1  0.15557841  0.64715096  0.75686814  1  0.100069  0  0.104829  0.111335  0  1.023221  0
H  H5  1  0.34443697  0.85284844  0.25686291  1  0.100495  0  0.104836  0.111316  0  1.023292  0
H  H6  1  0.84444097  0.35285054  0.24313109  1  0.100627  0  0.104821  0.111365  0  1.02331  0
H  H7  1  0.65555882  0.14715492  0.74313074  1  0.100593  0  0.104809  0.111301  0  1.023304  0
H  H8  1  0.96677692  0.27366381  0.75892567  1  0.072762  0  0.103597  0.105397  0  1.026049  0
H  H9  1  0.53324543  0.22633173  0.25891916  1  0.07288  0  0.103565  0.105313  0  1.026088  0
H  H10  1  0.03323345  0.72633142  0.24107443  1  0.07283  0  0.103609  0.105418  0  1.02608  0
H  H11  1  0.46676398  0.77367375  0.74107535  1  0.072915  0  0.103634  0.105424  0  1.026113  0
H  H12  1  0.76649360  0.27928059  0.82576332  1  0.05936  0  0.097717  0.098764  0  1.012922  0
H  H13  1  0.73352512  0.22071622  0.32575858  1  0.059473  0  0.097677  0.098743  0  1.012977  0
H  H14  1  0.23351290  0.72072053  0.17423548  1  0.059466  0  0.097723  0.098804  0  1.012979  0
H  H15  1  0.26648206  0.77928149  0.67423636  1  0.059463  0  0.097694  0.098736  0  1.013  0
H  H16  1  0.75966913  0.47238963  0.85854834  1  0.098877  0  0.101245  0.105732  0  1.010435  0
H  H17  1  0.74033632  0.02760959  0.35854998  1  0.099099  0  0.101261  0.105726  0  1.010371  0
H  H18  1  0.24034028  0.52761585  0.14144831  1  0.098938  0  0.101238  0.105684  0  1.0104  0
H  H19  1  0.25966010  0.97238522  0.64144840  1  0.098915  0  0.101233  0.105701  0  1.010406  0
H  H20  1  0.88545072  0.09484933  0.94549016  1  0.136437  0  0.138263  0.103916  0  0.98815  0
H  H21  1  0.61454451  0.40514734  0.44548986  1  0.136364  0  0.13824  0.103868  0  0.988145  0
H  H22  1  0.11452637  0.90514490  0.05451251  1  0.136328  0  0.138231  0.103891  0  0.98814  0
H  H23  1  0.38545583  0.59484673  0.55451367  1  0.136404  0  0.138268  0.103899  0  0.988177  0
H  H24  1  0.77252525  0.73404948  0.96458889  1  0.147742  0  0.124209  0.13241  0  0.991241  0
H  H25  1  0.72747412  0.76595412  0.46459090  1  0.147662  0  0.124194  0.132327  0  0.991124  0
H  H26  1  0.22747158  0.26595135  0.03541206  1  0.147957  0  0.124194  0.132384  0  0.991273  0
H  H27  1  0.27251195  0.23404381  0.53541134  1  0.147703  0  0.124183  0.132323  0  0.991185  0
H  H28  1  0.65438798  0.81855911  0.05777892  1  0.137479  0  0.123796  0.122489  0  1.026205  0
H  H29  1  0.84560625  0.68143844  0.55778317  1  0.137286  0  0.123753  0.122399  0  1.026137  0
H  H30  1  0.34560950  0.18143574  0.94222375  1  0.137584  0  0.123825  0.122546  0  1.026173  0
H  H31  1  0.15437768  0.31855942  0.44222164  1  0.137472  0  0.123798  0.122526  0  1.026033  0
H  H32  1  0.96550497  0.81335952  0.15150733  1  0.146814  0  0.136705  0.110141  0  1.014076  0
H  H33  1  0.53450206  0.68662700  0.65150136  1  0.147137  0  0.136732  0.11022  0  1.014056  0
H  H34  1  0.03449679  0.18663289  0.84849877  1  0.147013  0  0.136684  0.110183  0  1.014071  0
H  H35  1  0.46549806  0.31337906  0.34850002  1  0.146904  0  0.136749  0.110195  0  1.014072  0
H  H36  1  0.51353333  0.78500418  0.18735213  1  0.148622  0  0.126466  0.130724  0  1.02011  0
H  H37  1  0.98648915  0.71501739  0.68735398  1  0.148365  0  0.126529  0.130786  0  1.020054  0
H  H38  1  0.48646568  0.21499928  0.81265054  1  0.148506  0  0.126477  0.130761  0  1.020121  0
H  H39  1  0.01351481  0.28498022  0.31264440  1  0.148357  0  0.126528  0.13078  0  1.020081  0
H  H40  1  0.70374097  0.01799236  0.19032961  1  0.147212  0  0.120913  0.12584  0  1.000671  0
H  H41  1  0.79630385  0.48202640  0.69032814  1  0.147781  0  0.120937  0.125924  0  1.000583  0
H  H42  1  0.29626952  0.98201316  0.80966575  1  0.14785  0  0.120938  0.125912  0  1.000583  0
H  H43  1  0.20369222  0.51797011  0.30966508  1  0.147833  0  0.12091  0.125894  0  1.000565  0
H  H44  1  0.92823668  0.19864857  0.04408375  1  0.101183  0  0.102042  0.107061  0  1.0352  0
H  H45  1  0.57175476  0.30135255  0.54408600  1  0.1014  0  0.102086  0.107045  0  1.035277  0
H  H46  1  0.07175222  0.80134602  0.95591763  1  0.101348  0  0.102018  0.107019  0  1.035252  0
H  H47  1  0.42824453  0.69864406  0.45591496  1  0.101393  0  0.102089  0.107018  0  1.035281  0
H  H48  1  0.48589947  0.93106106  0.05765626  1  0.084433  0  0.105813  0.112936  0  0.997792  0
H  H49  1  0.01409935  0.56893717  0.55765542  1  0.084451  0  0.105777  0.112879  0  0.997964  0
H  H50  1  0.51409702  0.06894146  0.94234984  1  0.084383  0  0.105882  0.113036  0  0.99768  0
H  H51  1  0.98588714  0.43106676  0.44235155  1  0.084327  0  0.105805  0.112971  0  0.997889  0
H  H52  1  0.39419467  0.06511439  0.11062068  1  0.11497  0  0.101089  0.107976  0  1.054456  0
H  H53  1  0.10580552  0.43488206  0.61062010  1  0.114935  0  0.101108  0.108002  0  1.054416  0
H  H54  1  0.60579929  0.93488463  0.88937984  1  0.114996  0  0.10111  0.108037  0  1.054455  0
H  H55  1  0.89418956  0.56512213  0.38938129  1  0.114866  0  0.101099  0.107967  0  1.054388  0
H  H56  1  0.83885977  0.33227531  0.09748124  1  0.087711  0  0.10427  0.113827  0  1.029996  0
H  H57  1  0.66113690  0.16772605  0.59748062  1  0.08766  0  0.104289  0.113869  0  1.029954  0
H  H58  1  0.16113489  0.66772288  0.90251971  1  0.087684  0  0.104274  0.113838  0  1.029959  0
H  H59  1  0.33886810  0.83226903  0.40251604  1  0.087689  0  0.104266  0.113827  0  1.030008  0
H  H60  1  0.75181617  0.44770796  0.06882525  1  0.064572  0  0.10204  0.111156  0  1.020039  0
H  H61  1  0.74818712  0.05229264  0.56882231  1  0.064575  0  0.102049  0.111123  0  1.020053  0
H  H62  1  0.24818499  0.55229556  0.93117871  1  0.064444  0  0.102049  0.111158  0  1.019961  0
H  H63  1  0.25182186  0.94770684  0.43117735  1  0.064466  0  0.102003  0.111093  0  1.020036  0
H  H64  1  0.43188710  0.38644803  0.20870946  1  0.081572  0  0.108884  0.125999  0  0.9932  0
H  H65  1  0.06810662  0.11356178  0.70871508  1  0.081515  0  0.108932  0.126041  0  0.993106  0
H  H66  1  0.56811014  0.61355623  0.79129192  1  0.081821  0  0.108887  0.12602  0  0.993176  0
H  H67  1  0.93190277  0.88644113  0.29128630  1  0.08163  0  0.108946  0.126061  0  0.993125  0
H  H68  1  0.50643676  0.59870590  0.22247665  1  0.10576  0  0.106709  0.119074  0  1.029162  0
H  H69  1  0.99356090  0.90130325  0.72248027  1  0.10569  0  0.106723  0.119069  0  1.029159  0
H  H70  1  0.49356584  0.40129852  0.77752516  1  0.105758  0  0.106683  0.118991  0  1.029159  0
H  H71  1  0.00644419  0.09869953  0.27752197  1  0.105775  0  0.10673  0.119079  0  1.029071  0
H  H72  1  0.82620166  0.65770179  0.08346649  1  0.061114  0  0.100412  0.100861  0  1.014997  0
H  H73  1  0.67381346  0.84230153  0.58346371  1  0.061125  0  0.100388  0.100801  0  1.015146  0
H  H74  1  0.17380990  0.34230376  0.91653789  1  0.061062  0  0.100381  0.10081  0  1.015078  0
H  H75  1  0.32618942  0.15769605  0.41653767  1  0.061071  0  0.100403  0.100827  0  1.015078  0
H  H76  1  0.44863442  0.23623069  0.15887893  1  0.522264  0  0.2997  0.263904  0  1.020504  0
H  H77  1  0.05136556  0.26377336  0.65887913  1  0.522259  0  0.299692  0.263952  0  1.020523  0
H  H78  1  0.55135637  0.76377337  0.84112245  1  0.522356  0  0.299696  0.263918  0  1.020564  0
H  H79  1  0.94864489  0.73622958  0.34111924  1  0.522312  0  0.299716  0.264004  0  1.02054  0
C  C80  1  0.94817002  0.68518231  0.82652267  1  1.540976  0  0.185582  0.552088  0  4.238712  0
C  C81  1  0.55183110  0.81481587  0.32652027  1  1.541436  0  0.18556  0.552029  0  4.238828  0
C  C82  1  0.05184976  0.31482263  0.17347442  1  1.54069  0  0.185788  0.552374  0  4.238523  0
C  C83  1  0.44815853  0.18518045  0.67347252  1  1.540759  0  0.185802  0.552363  0  4.238586  0
C  C84  1  0.19755748  0.45791986  0.71344241  1  1.53271  0  0.191833  0.552993  0  4.239615  0
C  C85  1  0.30244842  0.04207850  0.21343615  1  1.532736  0  0.191718  0.552932  0  4.239671  0
C  C86  1  0.80244792  0.54207865  0.28655768  1  1.532643  0  0.191802  0.552924  0  4.239714  0
C  C87  1  0.69755062  0.95792753  0.78655965  1  1.532676  0  0.191823  0.553161  0  4.239556  0
C  C88  1  0.95682006  0.57079579  0.80965012  1  -0.044413  0  -0.021279  -0.041703  0  3.995545  0
C  C89  1  0.54318663  0.92920371  0.30964636  1  -0.044421  0  -0.021268  -0.041706  0  3.995449  0
C  C90  1  0.04319471  0.42920986  0.19034998  1  -0.044664  0  -0.021284  -0.041709  0  3.995391  0
C  C91  1  0.45681018  0.07079454  0.69034857  1  -0.044448  0  -0.021276  -0.0417  0  3.995305  0
C  C92  1  0.07026986  0.56670891  0.77202571  1  -0.029167  0  -0.074921  -0.102  0  3.924196  0
C  C93  1  0.42974207  0.93329175  0.27202213  1  -0.02966  0  -0.07491  -0.101886  0  3.924323  0
C  C94  1  0.92974057  0.43329147  0.22797224  1  -0.029664  0  -0.074911  -0.102018  0  3.924162  0
C  C95  1  0.57025836  0.06671003  0.72797324  1  -0.029708  0  -0.074856  -0.101794  0  3.924298  0
C  C96  1  0.07513449  0.46024744  0.75378261  1  0.000971  0  -0.021355  -0.039311  0  3.978411  0
C  C97  1  0.42487803  0.03975246  0.25377750  1  0.000944  0  -0.021284  -0.03925  0  3.978334  0
C  C98  1  0.92487200  0.53975367  0.24621749  1  0.000999  0  -0.021299  -0.03927  0  3.978341  0
C  C99  1  0.57512491  0.96025025  0.74621658  1  0.000939  0  -0.021384  -0.039538  0  3.978693  0
C  C100  1  0.96446887  0.35690237  0.77341131  1  -0.063412  0  -0.081501  -0.084336  0  3.946359  0
C  C101  1  0.53555145  0.14309531  0.27340593  1  -0.064477  0  -0.081546  -0.084372  0  3.946655  0
C  C102  1  0.03553830  0.64309534  0.22658750  1  -0.063616  0  -0.08157  -0.084469  0  3.946675  0
C  C103  1  0.46445720  0.85690587  0.72658772  1  -0.063518  0  -0.081596  -0.084506  0  3.946688  0
C  C104  1  0.85146091  0.36063596  0.81113836  1  -0.023448  0  -0.094743  -0.092633  0  4.019151  0
C  C105  1  0.64855167  0.13936445  0.31113325  1  -0.022977  0  -0.094716  -0.092548  0  4.019393  0
C  C106  1  0.14854488  0.63936598  0.18886131  1  -0.023214  0  -0.094762  -0.092641  0  4.019336  0
C  C107  1  0.35144913  0.86063820  0.68886255  1  -0.023827  0  -0.094765  -0.092523  0  4.019437  0
C  C108  1  0.84771501  0.46712622  0.82958591  1  -0.042751  0  -0.081705  -0.086908  0  3.959439  0
C  C109  1  0.65229992  0.03287403  0.32958392  1  -0.042776  0  -0.081704  -0.086945  0  3.959246  0
C  C110  1  0.15229903  0.53287769  0.17041289  1  -0.043107  0  -0.081666  -0.086835  0  3.959268  0
C  C111  1  0.34770118  0.96712436  0.67041231  1  -0.042813  0  -0.08165  -0.086894  0  3.959329  0
C  C112  1  0.84331351  0.00797108  0.96331332  1  0.98947  0  0.142403  0.099647  0  3.925127  0
C  C113  1  0.65667835  0.49202695  0.46331461  1  0.989486  0  0.14241  0.099692  0  3.925082  0
C  C114  1  0.15666465  0.99202318  0.03668806  1  0.989334  0  0.142334  0.099598  0  3.924968  0
C  C115  1  0.34331521  0.50796864  0.53668935  1  0.989375  0  0.142337  0.099644  0  3.925053  0
C  C116  1  0.78044991  0.82156000  0.97536528  1  0.365891  0  -0.003049  -0.041503  0  4.008483  0
C  C117  1  0.71954788  0.67843193  0.47536793  1  0.366139  0  -0.003144  -0.041459  0  4.008737  0
C  C118  1  0.21954371  0.17844073  0.02463481  1  0.365794  0  -0.003138  -0.041539  0  4.008363  0
C  C119  1  0.28044390  0.32156446  0.52463431  1  0.365899  0  -0.003097  -0.041371  0  4.008848  0
C  C120  1  0.71977078  0.86152549  0.02072116  1  0.306977  0  0.000926  -0.099367  0  3.915309  0
C  C121  1  0.78021479  0.63847312  0.52072150  1  0.306883  0  0.001091  -0.099146  0  3.915441  0
C  C122  1  0.28022419  0.13846843  0.97927979  1  0.306858  0  0.000975  -0.099409  0  3.915453  0
C  C123  1  0.21976839  0.36152300  0.47928332  1  0.306841  0  0.001053  -0.099299  0  3.915354  0
C  C124  1  0.86878753  0.83907818  0.15902422  1  0.960574  0  0.137017  0.080184  0  3.923914  0
C  C125  1  0.63122666  0.66091994  0.65902261  1  0.960491  0  0.136982  0.080268  0  3.923955  0
C  C126  1  0.13121530  0.16091427  0.84097845  1  0.960501  0  0.137027  0.080184  0  3.923959  0
C  C127  1  0.36877380  0.33908442  0.34097748  1  0.959802  0  0.136993  0.080357  0  3.923883  0
C  C128  1  0.63347741  0.82668852  0.17855685  1  0.27969  0  0.00253  -0.10002  0  3.893654  0
C  C129  1  0.86654900  0.67332516  0.67855681  1  0.279627  0  0.002413  -0.100352  0  3.893239  0
C  C130  1  0.36652485  0.17331760  0.82144281  1  0.279699  0  0.00248  -0.100245  0  3.893814  0
C  C131  1  0.13345211  0.32667322  0.32144243  1  0.279638  0  0.002437  -0.100259  0  3.89318  0
C  C132  1  0.72880675  0.94080036  0.18077926  1  0.404912  0  0.001334  -0.021307  0  3.985829  0
C  C133  1  0.77122106  0.55920403  0.68077944  1  0.404322  0  0.001491  -0.020877  0  3.985185  0
C  C134  1  0.27120260  0.05919999  0.81921955  1  0.404322  0  0.001385  -0.021088  0  3.985478  0
C  C135  1  0.22877897  0.44079432  0.31921550  1  0.4042  0  0.001541  -0.020865  0  3.985003  0
C  C136  1  0.80953079  0.17023012  0.05699081  1  -0.042039  0  -0.098048  -0.161851  0  4.036549  0
C  C137  1  0.69046532  0.32976901  0.55699099  1  -0.042293  0  -0.098017  -0.161743  0  4.036833  0
C  C138  1  0.19046460  0.82976980  0.94301358  1  -0.042327  0  -0.097954  -0.161726  0  4.036714  0
C  C139  1  0.30953327  0.67022844  0.44301168  1  -0.04216  0  -0.098026  -0.161652  0  4.036647  0
C  C140  1  0.71177165  0.05702547  0.04579801  1  0.236236  0  0.071128  0.121681  0  4.057064  0
C  C141  1  0.78822159  0.44297234  0.54579925  1  0.236042  0  0.071058  0.121636  0  4.057332  0
C  C142  1  0.28822230  0.94297355  0.95420294  1  0.236038  0  0.071138  0.121732  0  4.057315  0
C  C143  1  0.21177021  0.55702662  0.45420428  1  0.236134  0  0.071113  0.121616  0  4.057154  0
C  C144  1  0.56270028  0.01931604  0.06631168  1  -0.039833  0  -0.094349  -0.151342  0  4.047419  0
C  C145  1  0.93729971  0.48068437  0.56630971  1  -0.04001  0  -0.094311  -0.151279  0  4.047523  0
C  C146  1  0.43729729  0.98068651  0.93369270  1  -0.039348  0  -0.09439  -0.151448  0  4.047323  0
C  C147  1  0.06268924  0.51931535  0.43369468  1  -0.039975  0  -0.094272  -0.151323  0  4.047451  0
C  C148  1  0.51115332  0.09536310  0.09570393  1  -0.085197  0  -0.101301  -0.175867  0  3.971326  0
C  C149  1  0.98884505  0.40463483  0.59570155  1  -0.08494  0  -0.101376  -0.175982  0  3.971365  0
C  C150  1  0.48884137  0.90463766  0.90429874  1  -0.085773  0  -0.10135  -0.175978  0  3.971403  0
C  C151  1  0.01114676  0.59536413  0.40430026  1  -0.084785  0  -0.101343  -0.175846  0  3.970994  0
C  C152  1  0.60636170  0.21166369  0.10573404  1  0.439373  0  0.101802  0.243578  0  4.035826  0
C  C153  1  0.89363735  0.28833544  0.60573402  1  0.439444  0  0.101845  0.243583  0  4.035886  0
C  C154  1  0.39363335  0.78833793  0.89426777  1  0.439665  0  0.101786  0.24361  0  4.035712  0
C  C155  1  0.10636483  0.71166297  0.39426736  1  0.439295  0  0.101755  0.243661  0  4.035696  0
C  C156  1  0.75804032  0.24679080  0.08678981  1  0.017191  0  -0.101119  -0.174012  0  3.964719  0
C  C157  1  0.74195495  0.25321015  0.58679129  1  0.017124  0  -0.101128  -0.174054  0  3.964769  0
C  C158  1  0.24195256  0.75320819  0.91321200  1  0.017164  0  -0.101119  -0.174088  0  3.964676  0
C  C159  1  0.25804647  0.74678396  0.41320708  1  0.01701  0  -0.101129  -0.174166  0  3.964867  0
C  C160  1  0.70102840  0.47899046  0.10393846  1  0.042487  0  -0.104827  -0.183446  0  3.990724  0
C  C161  1  0.79897344  0.02100784  0.60393758  1  0.042574  0  -0.104885  -0.183475  0  3.990824  0
C  C162  1  0.29897668  0.52101232  0.89606507  1  0.043458  0  -0.104957  -0.183643  0  3.990838  0
C  C163  1  0.20103266  0.97898984  0.39606294  1  0.042475  0  -0.104837  -0.18344  0  3.990677  0
C  C164  1  0.59179052  0.40061464  0.13988747  1  0.364719  0  0.102919  0.244674  0  4.039747  0
C  C165  1  0.90820494  0.09938467  0.63988829  1  0.364979  0  0.102932  0.244724  0  4.039609  0
C  C166  1  0.40820561  0.59938702  0.86011392  1  0.364869  0  0.102946  0.244719  0  4.039688  0
C  C167  1  0.09179797  0.90061547  0.36011309  1  0.365038  0  0.102916  0.244652  0  4.039604  0
C  C168  1  0.51984310  0.44610607  0.18169810  1  0.058319  0  -0.090747  -0.157337  0  3.937394  0
C  C169  1  0.98015842  0.05390339  0.68170051  1  0.058162  0  -0.090798  -0.157322  0  3.937164  0
C  C170  1  0.48015843  0.55389832  0.81830371  1  0.057701  0  -0.090723  -0.157314  0  3.937165  0
C  C171  1  0.01985026  0.94610036  0.31830044  1  0.057992  0  -0.090786  -0.157222  0  3.937147  0
C  C172  1  0.56047200  0.56472609  0.18926532  1  -0.056694  0  -0.090626  -0.145994  0  4.005583  0
C  C173  1  0.93953285  0.93528131  0.68926690  1  -0.056851  0  -0.090594  -0.146058  0  4.005383  0
C  C174  1  0.43952735  0.43527566  0.81073563  1  -0.056617  0  -0.090611  -0.145894  0  4.005479  0
C  C175  1  0.06047690  0.06472247  0.31073406  1  -0.056718  0  -0.090654  -0.146081  0  4.005537  0
C  C176  1  0.67460853  0.64124995  0.15506744  1  0.265594  0  0.073413  0.128192  0  4.047452  0
C  C177  1  0.82539770  0.85875207  0.65506774  1  0.265605  0  0.073423  0.128368  0  4.047174  0
C  C178  1  0.32539260  0.35875100  0.84493437  1  0.265666  0  0.073423  0.128186  0  4.047369  0
C  C179  1  0.17460414  0.14124805  0.34493450  1  0.26567  0  0.073423  0.128224  0  4.047442  0
C  C180  1  0.74201173  0.59801930  0.11179903  1  -0.066933  0  -0.097773  -0.157118  0  4.053077  0
C  C181  1  0.75799710  0.90198307  0.61179818  1  -0.066884  0  -0.097729  -0.157135  0  4.053253  0
C  C182  1  0.25799409  0.40198522  0.88820535  1  -0.067626  0  -0.097667  -0.156985  0  4.053063  0
C  C183  1  0.24201081  0.09801638  0.38820277  1  -0.066889  0  -0.097751  -0.157084  0  4.053074  0
N  N184  1  0.85739889  0.91393899  0.94001502  1  -1.231711  0  -0.363518  -0.308556  0  3.570118  0
N  N185  1  0.64259465  0.58605933  0.44001596  1  -1.231733  0  -0.363539  -0.308654  0  3.570154  0
N  N186  1  0.14258396  0.08605884  0.05998464  1  -1.231595  0  -0.363467  -0.308559  0  3.569849  0
N  N187  1  0.35740106  0.41393632  0.55998585  1  -1.23158  0  -0.363523  -0.308726  0  3.570286  0
N  N188  1  0.76057013  0.98005027  0.01261328  1  -1.26247  0  -0.223742  0.018115  0  3.814528  0
N  N189  1  0.73942342  0.51994746  0.51261610  1  -1.262092  0  -0.223713  0.018088  0  3.814611  0
N  N190  1  0.23942126  0.01994268  0.98738982  1  -1.262246  0  -0.223673  0.018255  0  3.814594  0
N  N191  1  0.26056624  0.48005143  0.48738829  1  -1.262245  0  -0.223753  0.018154  0  3.814367  0
N  N192  1  0.72348812  0.76316853  0.16428959  1  -1.26604  0  -0.224256  0.020433  0  3.813979  0
N  N193  1  0.77651948  0.73683384  0.66428933  1  -1.266046  0  -0.2242  0.02053  0  3.813895  0
N  N194  1  0.27651194  0.23683238  0.83571436  1  -1.265941  0  -0.224195  0.020624  0  3.813994  0
N  N195  1  0.22348129  0.26316625  0.33571162  1  -1.266031  0  -0.224224  0.0205  0  3.813801  0
N  N196  1  0.87448754  0.94699496  0.16843997  1  -1.217334  0  -0.365964  -0.29606  0  3.577899  0
N  N197  1  0.62553877  0.55300640  0.66843716  1  -1.217114  0  -0.366146  -0.29663  0  3.57806  0
N  N198  1  0.12551856  0.05300272  0.83156098  1  -1.217453  0  -0.366047  -0.296386  0  3.578085  0
N  N199  1  0.37445990  0.44699876  0.33156036  1  -1.216133  0  -0.366206  -0.29673  0  3.57799  0
N  N200  1  0.54473352  0.28109180  0.13558927  1  -1.288116  0  -0.406589  -0.339348  0  3.612437  0
N  N201  1  0.95526505  0.21891003  0.63558934  1  -1.288115  0  -0.406603  -0.339395  0  3.612486  0
N  N202  1  0.45525865  0.71890802  0.86441083  1  -1.288238  0  -0.406642  -0.339415  0  3.612347  0
N  N203  1  0.04474467  0.78109118  0.36440817  1  -1.28799  0  -0.406589  -0.339549  0  3.612428  0
O  O204  1  0.20533586  0.35627219  0.70368738  1  -1.164732  0  -0.33907  -0.56807  0  2.288383  0
O  O205  1  0.29467228  0.14372933  0.20368568  1  -1.164612  0  -0.339019  -0.56797  0  2.288269  0
O  O206  1  0.79466239  0.64372696  0.29631357  1  -1.164504  0  -0.339029  -0.568009  0  2.288381  0
O  O207  1  0.70532891  0.85627676  0.79631355  1  -1.164436  0  -0.339087  -0.568113  0  2.288252  0
O  O208  1  0.28535665  0.54942792  0.69041319  1  -1.188497  0  -0.332197  -0.564616  0  2.137615  0
O  O209  1  0.21465413  0.95056826  0.19040875  1  -1.188545  0  -0.332126  -0.564584  0  2.137702  0
O  O210  1  0.71465154  0.45056468  0.30958432  1  -1.188485  0  -0.332181  -0.56457  0  2.137644  0
O  O211  1  0.78534279  0.04944027  0.80958705  1  -1.188548  0  -0.332104  -0.564557  0  2.137638  0
O  O212  1  0.86204356  0.68938700  0.86798137  1  -1.168715  0  -0.342393  -0.56266  0  2.146776  0
O  O213  1  0.63794405  0.81060017  0.36798346  1  -1.168857  0  -0.342313  -0.562595  0  2.146782  0
O  O214  1  0.13796472  0.31061331  0.13201185  1  -1.168387  0  -0.342489  -0.562765  0  2.14678  0
O  O215  1  0.36204264  0.18938921  0.63200804  1  -1.168401  0  -0.342523  -0.562809  0  2.14667  0
O  O216  1  0.02680088  0.77535132  0.79778948  1  -1.168881  0  -0.338938  -0.564134  0  2.198492  0
O  O217  1  0.47320541  0.72465003  0.29778410  1  -1.168972  0  -0.338984  -0.564147  0  2.198627  0
O  O218  1  0.97321639  0.22465269  0.20220761  1  -1.168721  0  -0.339058  -0.564356  0  2.19852  0
O  O219  1  0.52678351  0.27534713  0.70220869  1  -1.168752  0  -0.339047  -0.564335  0  2.19865  0
