# generated using pymatgen
data_Zn2H11C15N2O9
_symmetry_space_group_name_H-M   'P 1'
_cell_length_a   8.68855077
_cell_length_b   9.48561817
_cell_length_c   11.11338686
_cell_angle_alpha   79.06388140
_cell_angle_beta   77.13926735
_cell_angle_gamma   69.14476909
_symmetry_Int_Tables_number   1
_chemical_formula_structural   Zn2H11C15N2O9
_chemical_formula_sum   'Zn4 H22 C30 N4 O18'
_cell_volume   828.28615815
_cell_formula_units_Z   2
loop_
 _symmetry_equiv_pos_site_id
 _symmetry_equiv_pos_as_xyz
  1  'x, y, z'
loop_
 _atom_site_type_symbol
 _atom_site_label
 _atom_site_symmetry_multiplicity
 _atom_site_fract_x
 _atom_site_fract_y
 _atom_site_fract_z
 _atom_site_occupancy
 _atom_site_hle17_bader_spin_density
 _atom_site_hle17_ddec_charge
 _atom_site_hle17_ddec_spin_density
 _atom_site_hle17_ddec_sum_bond_order
 _atom_site_hle17_magmom
 _atom_site_hse06_10hf_bader_spin_density
 _atom_site_hse06_10hf_ddec_charge
 _atom_site_hse06_10hf_ddec_spin_density
 _atom_site_hse06_10hf_ddec_sum_bond_order
 _atom_site_hse06_10hf_magmom
 _atom_site_hse06_bader_spin_density
 _atom_site_hse06_ddec_charge
 _atom_site_hse06_ddec_spin_density
 _atom_site_hse06_ddec_sum_bond_order
 _atom_site_hse06_magmom
 _atom_site_pbe_bader_spin_density
 _atom_site_pbe_cm5_charge
 _atom_site_pbe_ddec_charge
 _atom_site_pbe_ddec_spin_density
 _atom_site_pbe_ddec_sum_bond_order
 _atom_site_pbe_magmom
Zn  Zn0  1  0.89433329  0.36042925  0.65863184  1  0  1.080758  0  1.775435  0  0  0.898306  0  2.251834  0  0  0.947711  0  2.192806  0  0  0.699447  0.86377  0  2.292635  0
Zn  Zn1  1  0.10565890  0.63957278  0.34137440  1  0  1.080643  0  1.775525  0  0  0.898197  0  2.251909  0  0  0.947604  0  2.192878  0  0  0.699406  0.863661  0  2.29271  0
Zn  Zn2  1  0.55606596  0.22764529  0.00798992  1  0  1.100922  0  1.753629  0  0  0.924941  0  2.214672  0  0  0.973076  0  2.157271  0  0  0.681988  0.891936  0  2.253602  0
Zn  Zn3  1  0.44393802  0.77234428  0.99201101  1  0  1.100898  0  1.753651  0  0  0.924903  0  2.2147  0  0  0.973041  0  2.157297  0  0  0.681996  0.891892  0  2.253632  0
H  H4  1  0.84803452  0.99540457  0.98107892  1  0  0.417151  0  0.819515  0  0  0.403502  0  0.867782  0  0  0.411113  0  0.859684  0  0  0.322907  0.398091  0  0.873809  0
H  H5  1  0.15196168  0.00459409  0.01891461  1  0  0.417064  0  0.819594  0  0  0.403429  0  0.867845  0  0  0.411035  0  0.859758  0  0  0.322899  0.398019  0  0.873866  0
H  H6  1  0.78835913  0.98779849  0.12597435  1  0  0.44032  0  0.8515  0  0  0.408989  0  0.91599  0  0  0.419882  0  0.899788  0  0  0.29765  0.401323  0  0.927443  0
H  H7  1  0.21164797  0.01220248  0.87401895  1  0  0.440208  0  0.851654  0  0  0.408882  0  0.916138  0  0  0.419774  0  0.899937  0  0  0.297611  0.401215  0  0.927591  0
H  H8  1  0.36453701  0.20940010  0.21330741  1  0  0.438392  0  0.865889  0  0  0.402742  0  0.937167  0  0  0.414489  0  0.920253  0  0  0.292929  0.394541  0  0.948937  0
H  H9  1  0.63546220  0.79059629  0.78669141  1  0  0.438367  0  0.865932  0  0  0.402715  0  0.937212  0  0  0.414462  0  0.920298  0  0  0.292896  0.394513  0  0.948983  0
H  H10  1  0.40794824  0.36700224  0.62542907  1  0  0.107408  0  0.95036  0  0  0.115138  0  1.016023  0  0  0.117961  0  1.015006  0  0  0.10704  0.113161  0  1.016508  0
H  H11  1  0.59204494  0.63300096  0.37456963  1  0  0.107449  0  0.950235  0  0  0.115158  0  1.015926  0  0  0.117986  0  1.014911  0  0  0.107048  0.11318  0  1.016411  0
H  H12  1  0.59218525  0.12663095  0.30402319  1  0  0.100279  0  0.970327  0  0  0.107308  0  1.040206  0  0  0.111691  0  1.035971  0  0  0.107353  0.103946  0  1.043656  0
H  H13  1  0.40781498  0.87337227  0.69597532  1  0  0.100267  0  0.970266  0  0  0.107297  0  1.04015  0  0  0.111681  0  1.035913  0  0  0.107347  0.103937  0  1.0436  0
H  H14  1  0.85658016  0.97361252  0.61307423  1  0  0.110627  0  0.932366  0  0  0.122425  0  0.989535  0  0  0.125919  0  0.987114  0  0  0.110262  0.1199  0  0.991317  0
H  H15  1  0.14342653  0.02640894  0.38691689  1  0  0.110576  0  0.932282  0  0  0.122448  0  0.989382  0  0  0.125946  0  0.986959  0  0  0.110281  0.119912  0  0.991158  0
H  H16  1  0.00434819  0.62778608  0.62888116  1  0  0.092849  0  0.956064  0  0  0.100139  0  1.02183  0  0  0.103325  0  1.018192  0  0  0.119106  0.097667  0  1.024817  0
H  H17  1  0.99564189  0.37221822  0.37112776  1  0  0.092807  0  0.956138  0  0  0.100133  0  1.021885  0  0  0.103323  0  1.018239  0  0  0.119092  0.09766  0  1.024874  0
H  H18  1  0.18800204  0.70694719  0.72719636  1  0  0.119184  0  0.955917  0  0  0.127978  0  1.016076  0  0  0.130922  0  1.015992  0  0  0.109996  0.126148  0  1.015656  0
H  H19  1  0.81199689  0.29304918  0.27281061  1  0  0.11922  0  0.955929  0  0  0.127998  0  1.016103  0  0  0.130978  0  1.015977  0  0  0.110025  0.12616  0  1.015693  0
H  H20  1  0.21519679  0.31301584  0.00201001  1  0  0.122265  0  0.967591  0  0  0.13102  0  1.030368  0  0  0.134762  0  1.028391  0  0  0.11006  0.128341  0  1.031919  0
H  H21  1  0.78481133  0.68696920  0.99798737  1  0  0.122303  0  0.967614  0  0  0.131046  0  1.030395  0  0  0.134788  0  1.028418  0  0  0.110102  0.12837  0  1.03194  0
H  H22  1  0.02799967  0.25292272  0.89452688  1  0  0.081786  0  0.954317  0  0  0.089429  0  1.019775  0  0  0.092611  0  1.0161  0  0  0.118377  0.08694  0  1.022591  0
H  H23  1  0.97199317  0.74707478  0.10547455  1  0  0.081706  0  0.954434  0  0  0.089408  0  1.019837  0  0  0.092589  0  1.016164  0  0  0.118363  0.086919  0  1.022654  0
H  H24  1  0.41932670  0.04547130  0.15451757  1  0  0.432974  0  0.862071  0  0  0.401583  0  0.924681  0  0  0.411618  0  0.910484  0  0  0.299536  0.394972  0  0.93397  0
H  H25  1  0.58067054  0.95452394  0.84548263  1  0  0.432944  0  0.862128  0  0  0.401563  0  0.924714  0  0  0.411594  0  0.910525  0  0  0.299525  0.394954  0  0.933999  0
C  C26  1  0.63495368  0.17323602  0.63247060  1  0  -0.076026  0  3.770651  0  0  -0.048298  0  4.012138  0  0  -0.056586  0  4.032129  0  0  -0.015365  -0.043237  0  3.998758  0
C  C27  1  0.36504288  0.82677401  0.36752744  1  0  -0.075926  0  3.770404  0  0  -0.048152  0  4.011885  0  0  -0.056441  0  4.031879  0  0  -0.015284  -0.043092  0  3.9985  0
C  C28  1  0.49985007  0.27382842  0.57771950  1  0  -0.044253  0  3.65795  0  0  -0.081933  0  3.902663  0  0  -0.077288  0  3.919181  0  0  -0.069128  -0.083953  0  3.890309  0
C  C29  1  0.50014433  0.72617478  0.42227812  1  0  -0.044392  0  3.657818  0  0  -0.082071  0  3.902536  0  0  -0.077437  0  3.919063  0  0  -0.069218  -0.084091  0  3.890183  0
C  C30  1  0.48342760  0.25663887  0.45951158  1  0  -0.067669  0  3.764916  0  0  -0.04012  0  3.999217  0  0  -0.050167  0  4.022158  0  0  -0.015479  -0.033639  0  3.983199  0
C  C31  1  0.51656944  0.74336661  0.54048708  1  0  -0.067686  0  3.765131  0  0  -0.040112  0  3.999374  0  0  -0.050161  0  4.022318  0  0  -0.01543  -0.033632  0  3.983358  0
C  C32  1  0.60181095  0.13844347  0.39724331  1  0  -0.062849  0  3.707565  0  0  -0.101829  0  3.956179  0  0  -0.098357  0  3.974828  0  0  -0.073541  -0.104195  0  3.943852  0
C  C33  1  0.39818962  0.86156544  0.60275248  1  0  -0.062732  0  3.70756  0  0  -0.10171  0  3.956134  0  0  -0.098234  0  3.974775  0  0  -0.073462  -0.104081  0  3.943813  0
C  C34  1  0.73528064  0.03631764  0.45219793  1  0  -0.064682  0  3.75912  0  0  -0.038607  0  3.997378  0  0  -0.048605  0  4.021058  0  0  -0.016161  -0.032176  0  3.981523  0
C  C35  1  0.26472221  0.96369127  0.54780021  1  0  -0.06475  0  3.759109  0  0  -0.038688  0  3.997408  0  0  -0.048688  0  4.021086  0  0  -0.016183  -0.032261  0  3.981554  0
C  C36  1  0.75207890  0.05364428  0.57064909  1  0  -0.058855  0  3.673202  0  0  -0.097524  0  3.922106  0  0  -0.093625  0  3.939333  0  0  -0.072264  -0.10021  0  3.910822  0
C  C37  1  0.24792512  0.94636806  0.42934654  1  0  -0.058895  0  3.673013  0  0  -0.097652  0  3.921964  0  0  -0.093757  0  3.939193  0  0  -0.072344  -0.100313  0  3.910659  0
C  C38  1  0.64612339  0.19549167  0.75966481  1  0  0.679254  0  3.841222  0  0  0.620474  0  4.135407  0  0  0.65601  0  4.127001  0  0  0.231304  0.596214  0  4.140681  0
C  C39  1  0.35387336  0.80450812  0.24033477  1  0  0.679439  0  3.841077  0  0  0.620569  0  4.135391  0  0  0.656106  0  4.126984  0  0  0.231327  0.596307  0  4.14067  0
C  C40  1  0.34435584  0.36629187  0.39657609  1  0  0.657354  0  3.900427  0  0  0.606189  0  4.189718  0  0  0.640794  0  4.182708  0  0  0.211658  0.582843  0  4.19361  0
C  C41  1  0.65563257  0.63370788  0.60342748  1  0  0.657245  0  3.900658  0  0  0.606128  0  4.189864  0  0  0.640732  0  4.182855  0  0  0.211623  0.582783  0  4.193757  0
C  C42  1  0.85977029  0.91188015  0.38131974  1  0  0.649853  0  3.914932  0  0  0.59961  0  4.207948  0  0  0.633294  0  4.202432  0  0  0.207279  0.576977  0  4.210631  0
C  C43  1  0.14024038  0.08813335  0.61867469  1  0  0.649918  0  3.91494  0  0  0.599695  0  4.207921  0  0  0.633382  0  4.202399  0  0  0.207254  0.577066  0  4.210603  0
C  C44  1  0.05565057  0.56038315  0.71030184  1  0  0.147337  0  3.681621  0  0  0.114397  0  3.933668  0  0  0.122835  0  3.948432  0  0  0.051347  0.10855  0  3.924359  0
C  C45  1  0.94434483  0.43961662  0.28970335  1  0  0.147418  0  3.681767  0  0  0.114419  0  3.933818  0  0  0.122854  0  3.948595  0  0  0.051391  0.108571  0  3.92451  0
C  C46  1  0.15733051  0.60388539  0.76514436  1  0  -0.128282  0  3.67297  0  0  -0.145534  0  3.914105  0  0  -0.151591  0  3.933131  0  0  -0.077742  -0.141772  0  3.901428  0
C  C47  1  0.84267297  0.39610873  0.23485685  1  0  -0.128388  0  3.673096  0  0  -0.145613  0  3.914209  0  0  -0.151702  0  3.933226  0  0  -0.077821  -0.14185  0  3.901526  0
C  C48  1  0.22228916  0.51327338  0.86954981  1  0  0.031126  0  3.739312  0  0  0.043779  0  3.976288  0  0  0.044581  0  3.995971  0  0  0.011137  0.04279  0  3.963732  0
C  C49  1  0.77771597  0.48671619  0.13045184  1  0  0.031124  0  3.73935  0  0  0.043808  0  3.976283  0  0  0.044607  0  3.995978  0  0  0.011131  0.042846  0  3.963689  0
C  C50  1  0.17490772  0.38481956  0.91833544  1  0  -0.140312  0  3.703531  0  0  -0.162924  0  3.957206  0  0  -0.169475  0  3.977982  0  0  -0.081055  -0.158785  0  3.94378  0
C  C51  1  0.82509429  0.61517228  0.08166454  1  0  -0.140334  0  3.70353  0  0  -0.162945  0  3.957233  0  0  -0.169497  0  3.978007  0  0  -0.081068  -0.158819  0  3.943801  0
C  C52  1  0.07014196  0.35017393  0.85929195  1  0  0.150875  0  3.685415  0  0  0.116936  0  3.938276  0  0  0.124914  0  3.954914  0  0  0.050295  0.11194  0  3.92687  0
C  C53  1  0.92985995  0.64982132  0.14070843  1  0  0.151029  0  3.685359  0  0  0.11703  0  3.938215  0  0  0.125008  0  3.954853  0  0  0.050343  0.112032  0  3.926813  0
C  C54  1  0.32904472  0.56638158  0.92519974  1  0  0.475448  0  3.863166  0  0  0.436959  0  4.14131  0  0  0.46319  0  4.145747  0  0  0.215279  0.419397  0  4.137662  0
C  C55  1  0.67096410  0.43360802  0.07479684  1  0  0.47532  0  3.863252  0  0  0.436786  0  4.141442  0  0  0.463016  0  4.145884  0  0  0.215168  0.419216  0  4.137791  0
N  N56  1  0.45417293  0.46603472  0.97827262  1  0  -0.389978  0  3.2027  0  0  -0.332111  0  3.496662  0  0  -0.355278  0  3.513329  0  0  -0.270844  -0.316354  0  3.484305  0
N  N57  1  0.54583388  0.53395372  0.02172624  1  0  -0.389835  0  3.202633  0  0  -0.331933  0  3.49656  0  0  -0.355101  0  3.513229  0  0  -0.270749  -0.316177  0  3.484205  0
N  N58  1  0.01454843  0.43366613  0.75580277  1  0  -0.34296  0  3.320101  0  0  -0.257099  0  3.602165  0  0  -0.276275  0  3.613788  0  0  -0.33469  -0.244489  0  3.594369  0
N  N59  1  0.98544339  0.56633705  0.24420155  1  0  -0.342962  0  3.320164  0  0  -0.257082  0  3.602241  0  0  -0.276258  0  3.613865  0  0  -0.334701  -0.244472  0  3.594445  0
O  O60  1  0.74246068  0.25976958  0.77854979  1  0  -0.61747  0  2.08512  0  0  -0.548892  0  2.36701  0  0  -0.576663  0  2.349326  0  0  -0.297217  -0.529834  0  2.379144  0
O  O61  1  0.25754868  0.74021772  0.22145605  1  0  -0.617484  0  2.085225  0  0  -0.548894  0  2.367164  0  0  -0.576663  0  2.349475  0  0  -0.297233  -0.529836  0  2.379302  0
O  O62  1  0.54904060  0.14884997  0.85056492  1  0  -0.622964  0  2.066678  0  0  -0.538999  0  2.311324  0  0  -0.569737  0  2.30045  0  0  -0.292776  -0.517981  0  2.317927  0
O  O63  1  0.45096297  0.85114415  0.14943358  1  0  -0.62308  0  2.066534  0  0  -0.539068  0  2.311223  0  0  -0.569798  0  2.300319  0  0  -0.292784  -0.518044  0  2.317823  0
O  O64  1  0.25549450  0.48713446  0.44903199  1  0  -0.649547  0  2.032394  0  0  -0.577693  0  2.30602  0  0  -0.608038  0  2.292728  0  0  -0.325212  -0.556703  0  2.314533  0
O  O65  1  0.74447981  0.51285841  0.55097751  1  0  -0.649452  0  2.032411  0  0  -0.577674  0  2.306094  0  0  -0.608018  0  2.292802  0  0  -0.325202  -0.55668  0  2.314597  0
O  O66  1  0.32056334  0.34146278  0.29611736  1  0  -0.624828  0  2.014175  0  0  -0.571191  0  2.246075  0  0  -0.596167  0  2.236581  0  0  -0.308792  -0.553767  0  2.251982  0
O  O67  1  0.67943615  0.65853929  0.70388055  1  0  -0.624815  0  2.01427  0  0  -0.571192  0  2.24615  0  0  -0.596166  0  2.236657  0  0  -0.308813  -0.553768  0  2.252055  0
O  O68  1  0.94966684  0.79642488  0.44667367  1  0  -0.650817  0  2.032071  0  0  -0.578928  0  2.303722  0  0  -0.60901  0  2.289907  0  0  -0.32615  -0.55787  0  2.312404  0
O  O69  1  0.05033735  0.20358972  0.55332699  1  0  -0.650934  0  2.032142  0  0  -0.578999  0  2.303737  0  0  -0.609083  0  2.289922  0  0  -0.326142  -0.557944  0  2.312422  0
O  O70  1  0.87319838  0.92385187  0.26506442  1  0  -0.643263  0  1.971735  0  0  -0.590938  0  2.196224  0  0  -0.61523  0  2.186538  0  0  -0.319941  -0.574265  0  2.20216  0
O  O71  1  0.12682055  0.07615824  0.73493105  1  0  -0.643262  0  1.971763  0  0  -0.590963  0  2.196254  0  0  -0.615256  0  2.186568  0  0  -0.319945  -0.574284  0  2.202174  0
O  O72  1  0.29326670  0.71151212  0.91477002  1  0  -0.621911  0  2.076623  0  0  -0.556408  0  2.345185  0  0  -0.584024  0  2.333185  0  0  -0.323684  -0.536762  0  2.352581  0
O  O73  1  0.70673882  0.28847631  0.08523265  1  0  -0.621905  0  2.076626  0  0  -0.556392  0  2.345217  0  0  -0.58401  0  2.333224  0  0  -0.323673  -0.536747  0  2.352615  0
O  O74  1  0.75098821  0.99786760  0.04537861  1  0  -0.797656  0  1.857739  0  0  -0.743948  0  2.046871  0  0  -0.762704  0  2.018326  0  0  -0.564247  -0.730531  0  2.066736  0
O  O75  1  0.24901510  0.00212426  0.95461758  1  0  -0.797449  0  1.857879  0  0  -0.743765  0  2.047018  0  0  -0.76252  0  2.018479  0  0  -0.56421  -0.730349  0  2.066879  0
O  O76  1  0.38599555  0.15755266  0.13668150  1  0  -0.831766  0  1.92371  0  0  -0.758816  0  2.138709  0  0  -0.781826  0  2.101696  0  0  -0.57064  -0.742875  0  2.163555  0
O  O77  1  0.61400601  0.84244374  0.86331695  1  0  -0.831738  0  1.92382  0  0  -0.758757  0  2.138803  0  0  -0.781768  0  2.101794  0  0  -0.570588  -0.742818  0  2.163646  0
