# generated using pymatgen
data_NiH16C14(N2O3)2
_symmetry_space_group_name_H-M   'P 1'
_cell_length_a   8.11832652
_cell_length_b   9.63787510
_cell_length_c   10.74509472
_cell_angle_alpha   105.46970599
_cell_angle_beta   90.00010782
_cell_angle_gamma   89.99973656
_symmetry_Int_Tables_number   1
_chemical_formula_structural   NiH16C14(N2O3)2
_chemical_formula_sum   'Ni2 H32 C28 N8 O12'
_cell_volume   810.27453051
_cell_formula_units_Z   2
loop_
 _symmetry_equiv_pos_site_id
 _symmetry_equiv_pos_as_xyz
  1  'x, y, z'
loop_
 _atom_site_type_symbol
 _atom_site_label
 _atom_site_symmetry_multiplicity
 _atom_site_fract_x
 _atom_site_fract_y
 _atom_site_fract_z
 _atom_site_occupancy
 _atom_site_pbe_cm5_charge
 _atom_site_pbe_ddec_charge
 _atom_site_pbe_ddec_spin_density
 _atom_site_pbe_ddec_sum_bond_order
 _atom_site_pbe_magmom
Ni  Ni0  1  0.00000123  0.00000000  0.00000093  1  0.618074  0.747753  -0.07522  2.452337  -0.067
Ni  Ni1  1  0.49999886  0.49999980  0.49999945  1  0.618081  0.747732  -0.075217  2.452248  -0.067
H  H2  1  0.01995575  0.22244030  0.22023055  1  0.290087  0.372008  -0.000986  0.969286  -0.001
H  H3  1  0.51995527  0.27755943  0.27977077  1  0.290065  0.371964  -0.000987  0.969323  -0.001
H  H4  1  0.98004566  0.77755930  0.77977208  1  0.290071  0.37196  -0.000986  0.969329  -0.001
H  H5  1  0.48004121  0.72243909  0.72022880  1  0.290079  0.372012  -0.000986  0.969262  -0.001
H  H6  1  0.19359025  0.13805136  0.19156314  1  0.283874  0.361851  -0.000626  0.991191  0.0
H  H7  1  0.69358692  0.36194879  0.30843760  1  0.283875  0.361865  -0.000626  0.991179  0.0
H  H8  1  0.80641116  0.86194823  0.80843855  1  0.283864  0.361843  -0.000626  0.991203  0.0
H  H9  1  0.30640710  0.63805188  0.69156249  1  0.283848  0.36181  -0.000626  0.991246  0.0
H  H10  1  0.80962431  0.29593324  0.10518034  1  0.140357  0.113227  -0.000406  1.041256  0.0
H  H11  1  0.30962286  0.20406755  0.39481886  1  0.140352  0.113228  -0.000406  1.041214  0.0
H  H12  1  0.19037710  0.70406850  0.89482001  1  0.140353  0.113228  -0.000406  1.041259  0.0
H  H13  1  0.69037486  0.79593312  0.60518030  1  0.140371  0.113249  -0.000406  1.041284  0.0
H  H14  1  0.04026876  0.11613618  0.74700910  1  0.118663  0.116057  9.7e-05  1.028838  0.0
H  H15  1  0.54026271  0.38386115  0.75299320  1  0.118699  0.116125  9.7e-05  1.028765  0.0
H  H16  1  0.95973511  0.88386234  0.25299234  1  0.118692  0.11612  9.7e-05  1.028774  0.0
H  H17  1  0.45973500  0.61614167  0.24700647  1  0.1187  0.116123  9.7e-05  1.028774  0.0
H  H18  1  0.90771898  0.38387300  0.74691909  1  0.123899  0.130891  0.000291  1.031801  0.0
H  H19  1  0.40771519  0.11612618  0.75308139  1  0.123891  0.130879  0.000291  1.031776  0.0
H  H20  1  0.09228367  0.61612659  0.25307981  1  0.123879  0.130876  0.000291  1.031807  0.0
H  H21  1  0.59228376  0.88387664  0.24692108  1  0.12389  0.130843  0.000291  1.031789  0.0
H  H22  1  0.71721792  0.52768990  0.09027309  1  0.118116  0.094307  -5e-05  1.017767  0.0
H  H23  1  0.21721874  0.97230963  0.40972245  1  0.118113  0.094275  -5e-05  1.01775  0.0
H  H24  1  0.28278103  0.47231184  0.90972167  1  0.118105  0.094274  -5e-05  1.017757  0.0
H  H25  1  0.78278144  0.02768996  0.59027738  1  0.118111  0.094282  -5e-05  1.017761  0.0
H  H26  1  0.74396185  0.58953142  0.82058874  1  0.101214  0.153655  0.000404  1.047681  0.0
H  H27  1  0.24395628  0.91046999  0.67940880  1  0.101207  0.153652  0.000404  1.047671  0.0
H  H28  1  0.25604818  0.41047247  0.17940839  1  0.101192  0.153588  0.000404  1.047725  0.0
H  H29  1  0.75604021  0.08952960  0.32059103  1  0.10121  0.153645  0.000404  1.047654  0.0
H  H30  1  0.65227781  0.70436468  0.97211219  1  0.097067  0.142644  -1.4e-05  1.035337  0.0
H  H31  1  0.15227248  0.79563385  0.52788546  1  0.097135  0.142722  -1.4e-05  1.035265  0.0
H  H32  1  0.34772976  0.29563706  0.02788536  1  0.097108  0.142686  -1.4e-05  1.035341  0.0
H  H33  1  0.84772400  0.20436466  0.47211318  1  0.097114  0.142699  -1.4e-05  1.03536  0.0
C  C34  1  0.85468155  0.28005667  0.00773836  1  0.144526  0.083721  0.000202  3.893403  0.0
C  C35  1  0.35468025  0.21994396  0.49226365  1  0.14456  0.083711  0.000202  3.893391  0.0
C  C36  1  0.14532109  0.71994400  0.99226266  1  0.144529  0.08374  0.000202  3.893469  0.0
C  C37  1  0.64531869  0.78005779  0.50773855  1  0.144512  0.083665  0.000202  3.893442  0.0
C  C38  1  0.97269849  0.19351174  0.82102213  1  0.004879  -0.018842  0.00042  3.967232  0.0
C  C39  1  0.47269225  0.30648720  0.67897931  1  0.004709  -0.01906  0.00042  3.967351  0.0
C  C40  1  0.02730538  0.80648785  0.17897863  1  0.004787  -0.01896  0.00042  3.967296  0.0
C  C41  1  0.52730423  0.69351455  0.32102104  1  0.004662  -0.01916  0.00042  3.96744  0.0
C  C42  1  0.38216714  0.99493012  0.95855862  1  0.087623  0.132948  0.005901  4.192317  0.002
C  C43  1  0.88216633  0.50506970  0.54144246  1  0.087651  0.133  0.005901  4.192292  0.002
C  C44  1  0.61783180  0.00506839  0.04144282  1  0.087634  0.133005  0.005901  4.192295  0.002
C  C45  1  0.11783262  0.49492989  0.45855830  1  0.087605  0.132875  0.005902  4.192424  0.002
C  C46  1  0.90812571  0.32472979  0.81956143  1  0.000356  -0.110265  0.000525  3.887177  0.0
C  C47  1  0.40811896  0.17526831  0.68043879  1  0.000405  -0.110247  0.000525  3.887217  0.0
C  C48  1  0.09187939  0.67526765  0.18043882  1  0.000401  -0.110251  0.000525  3.887118  0.0
C  C49  1  0.59187752  0.82473451  0.31956181  1  0.00049  -0.110068  0.000525  3.887118  0.0
C  C50  1  0.54792676  0.94360135  0.91090090  1  0.09494  0.153075  0.010209  4.147577  0.009
C  C51  1  0.04792658  0.55639757  0.58910228  1  0.094933  0.153096  0.010209  4.147587  0.009
C  C52  1  0.45207219  0.05639825  0.08910173  1  0.094907  0.153058  0.010209  4.147557  0.009
C  C53  1  0.95207237  0.44360310  0.41090060  1  0.094951  0.153142  0.010209  4.147502  0.009
C  C54  1  0.75029240  0.51064778  0.98897777  1  0.007894  0.029028  0.000116  4.037383  0.0
C  C55  1  0.25028967  0.98935253  0.51101859  1  0.007989  0.029254  0.000116  4.037172  0.0
C  C56  1  0.24971148  0.48935289  0.01101953  1  0.007944  0.029137  0.000116  4.037293  0.0
C  C57  1  0.74970927  0.01064813  0.48898150  1  0.007949  0.029131  0.000116  4.037317  0.0
C  C58  1  0.71495472  0.60549289  0.92251902  1  -0.183818  -0.340567  0.000275  3.855303  0.0
C  C59  1  0.21494898  0.89450756  0.57747639  1  -0.183874  -0.340716  0.000275  3.8551  0.0
C  C60  1  0.28505408  0.39450777  0.07747455  1  -0.183816  -0.340526  0.000275  3.855231  0.0
C  C61  1  0.78504873  0.10549419  0.42252396  1  -0.18383  -0.340621  0.000275  3.855232  0.0
N  N62  1  0.93844288  0.16727291  0.93908793  1  -0.359026  -0.261873  0.009223  3.654225  0.008
N  N63  1  0.43843867  0.33272509  0.56091137  1  -0.358936  -0.26171  0.009222  3.654118  0.008
N  N64  1  0.06155976  0.83272776  0.06091309  1  -0.35894  -0.261781  0.009223  3.654251  0.008
N  N65  1  0.56155781  0.66727343  0.43908635  1  -0.358942  -0.261725  0.009222  3.654208  0.008
N  N66  1  0.83328517  0.37881180  0.93902145  1  -0.231096  0.053249  0.000462  3.831107  0.0
N  N67  1  0.33328087  0.12118658  0.56097686  1  -0.231213  0.053153  0.000462  3.831288  0.0
N  N68  1  0.16671870  0.62118779  0.06097652  1  -0.231193  0.053143  0.000462  3.831242  0.0
N  N69  1  0.66671684  0.87881301  0.43902297  1  -0.231185  0.053205  0.000462  3.831285  0.0
O  O70  1  0.24388613  0.98795350  0.90453736  1  -0.284108  -0.408962  0.060627  2.400687  0.06
O  O71  1  0.74388418  0.51204792  0.59546297  1  -0.284139  -0.409011  0.060626  2.400677  0.06
O  O72  1  0.75611281  0.01204609  0.09546247  1  -0.284082  -0.408964  0.060624  2.400719  0.06
O  O73  1  0.25611353  0.48794953  0.40453728  1  -0.284086  -0.408915  0.060626  2.400745  0.06
O  O74  1  0.07098003  0.12628301  0.18713254  1  -0.572268  -0.740675  -0.053002  2.19748  -0.057
O  O75  1  0.57097788  0.37371653  0.31286881  1  -0.57225  -0.740637  -0.053002  2.197469  -0.057
O  O76  1  0.92902014  0.87371659  0.81287008  1  -0.572237  -0.7406  -0.053001  2.197503  -0.057
O  O77  1  0.42901737  0.62628199  0.68713077  1  -0.572233  -0.740628  -0.053002  2.197443  -0.057
O  O78  1  0.60260680  0.87359743  0.80229155  1  -0.292247  -0.429427  0.003944  2.34664  0.004
O  O79  1  0.10260898  0.62640021  0.69771048  1  -0.292212  -0.429392  0.003943  2.34669  0.004
O  O80  1  0.39739091  0.12640109  0.19770989  1  -0.292202  -0.429387  0.003944  2.346665  0.004
O  O81  1  0.89738997  0.37360154  0.30229080  1  -0.292259  -0.429443  0.003943  2.346575  0.004
