# generated using pymatgen
data_ZnH8(C7N4)2
_symmetry_space_group_name_H-M   'P 1'
_cell_length_a   8.71803092
_cell_length_b   9.34450667
_cell_length_c   9.34448700
_cell_angle_alpha   76.70019293
_cell_angle_beta   81.41724545
_cell_angle_gamma   81.41719999
_symmetry_Int_Tables_number   1
_chemical_formula_structural   ZnH8(C7N4)2
_chemical_formula_sum   'Zn2 H16 C28 N16'
_cell_volume   727.30023981
_cell_formula_units_Z   2
loop_
 _symmetry_equiv_pos_site_id
 _symmetry_equiv_pos_as_xyz
  1  'x, y, z'
loop_
 _atom_site_type_symbol
 _atom_site_label
 _atom_site_symmetry_multiplicity
 _atom_site_fract_x
 _atom_site_fract_y
 _atom_site_fract_z
 _atom_site_occupancy
 _atom_site_hle17_bader_spin_density
 _atom_site_hle17_ddec_charge
 _atom_site_hle17_ddec_spin_density
 _atom_site_hle17_ddec_sum_bond_order
 _atom_site_hle17_magmom
 _atom_site_hse06_10hf_bader_spin_density
 _atom_site_hse06_10hf_ddec_charge
 _atom_site_hse06_10hf_ddec_spin_density
 _atom_site_hse06_10hf_ddec_sum_bond_order
 _atom_site_hse06_10hf_magmom
 _atom_site_hse06_bader_spin_density
 _atom_site_hse06_ddec_charge
 _atom_site_hse06_ddec_spin_density
 _atom_site_hse06_ddec_sum_bond_order
 _atom_site_hse06_magmom
 _atom_site_pbe_bader_spin_density
 _atom_site_pbe_cm5_charge
 _atom_site_pbe_ddec_charge
 _atom_site_pbe_ddec_spin_density
 _atom_site_pbe_ddec_sum_bond_order
 _atom_site_pbe_magmom
Zn  Zn0  1  0.75000067  0.30644350  0.69355723  1  0  0.891418  0  1.91715  0  0  0.667966  0  2.393871  0  0  0.712053  0  2.349534  0  0  0.728879  0.637893  0  2.423813  0
Zn  Zn1  1  0.25000257  0.69355518  0.30644467  1  0  0.891463  0  1.917116  0  0  0.668026  0  2.393833  0  0  0.712112  0  2.349482  0  0  0.728882  0.637948  0  2.423772  0
H  H2  1  0.12301842  0.96307013  0.42171130  1  0  0.087836  0  1.012314  0  0  0.084092  0  1.095412  0  0  0.088452  0  1.090883  0  0  0.11525  0.082062  0  1.096653  0
H  H3  1  0.37698369  0.57829044  0.03692775  1  0  0.087842  0  1.012314  0  0  0.084086  0  1.09542  0  0  0.088445  0  1.090895  0  0  0.115261  0.082056  0  1.09666  0
H  H4  1  0.87698572  0.03693077  0.57829317  1  0  0.087871  0  1.012287  0  0  0.084111  0  1.095388  0  0  0.088471  0  1.090863  0  0  0.115244  0.082081  0  1.096628  0
H  H5  1  0.62301607  0.42170823  0.96307036  1  0  0.087847  0  1.012273  0  0  0.084075  0  1.095396  0  0  0.088432  0  1.090876  0  0  0.115247  0.082048  0  1.096632  0
H  H6  1  0.54131570  0.84617081  0.17725665  1  0  0.083852  0  0.937842  0  0  0.090889  0  1.001345  0  0  0.094039  0  0.998756  0  0  0.115789  0.08847  0  1.003565  0
H  H7  1  0.95868770  0.82274605  0.15383090  1  0  0.083838  0  0.937862  0  0  0.090857  0  1.001382  0  0  0.094024  0  0.998777  0  0  0.115789  0.088435  0  1.003605  0
H  H8  1  0.45868133  0.15383118  0.82273893  1  0  0.083791  0  0.937818  0  0  0.090816  0  1.001337  0  0  0.09397  0  0.998746  0  0  0.115751  0.088395  0  1.003559  0
H  H9  1  0.04131308  0.17725374  0.84617215  1  0  0.083847  0  0.937866  0  0  0.090876  0  1.001369  0  0  0.09403  0  0.998777  0  0  0.115792  0.088456  0  1.003591  0
H  H10  1  0.63794000  0.08825052  0.17252884  1  0  0.10222  0  0.951751  0  0  0.113489  0  1.007212  0  0  0.11604  0  1.008027  0  0  0.105988  0.111529  0  1.006788  0
H  H11  1  0.86205969  0.82747590  0.91175312  1  0  0.102276  0  0.9517  0  0  0.113521  0  1.007187  0  0  0.116073  0  1.007998  0  0  0.106001  0.111562  0  1.006763  0
H  H12  1  0.36205675  0.91175367  0.82746091  1  0  0.102243  0  0.951713  0  0  0.11351  0  1.007181  0  0  0.116062  0  1.007995  0  0  0.106015  0.111551  0  1.006756  0
H  H13  1  0.13793980  0.17252501  0.08825092  1  0  0.102238  0  0.951735  0  0  0.113496  0  1.00721  0  0  0.116046  0  1.008024  0  0  0.105986  0.111532  0  1.006791  0
H  H14  1  0.46404298  0.27389648  0.29843028  1  0  0.111753  0  0.966806  0  0  0.119742  0  1.029427  0  0  0.122092  0  1.028778  0  0  0.111802  0.117799  0  1.03049  0
H  H15  1  0.03595201  0.70157385  0.72610494  1  0  0.111733  0  0.966876  0  0  0.119829  0  1.02938  0  0  0.12218  0  1.02873  0  0  0.111816  0.117881  0  1.030439  0
H  H16  1  0.53595929  0.72610992  0.70156246  1  0  0.111702  0  0.966974  0  0  0.119788  0  1.02948  0  0  0.12214  0  1.02883  0  0  0.111809  0.117846  0  1.030544  0
H  H17  1  0.96404154  0.29842817  0.27389648  1  0  0.111689  0  0.966889  0  0  0.119758  0  1.029428  0  0  0.12211  0  1.028778  0  0  0.111796  0.117812  0  1.030489  0
C  C18  1  0.03107465  0.42468035  0.49662940  1  0  0.254756  0  3.842906  0  0  0.23195  0  4.108226  0  0  0.242853  0  4.123397  0  0  0.207268  0.225575  0  4.096432  0
C  C19  1  0.46892684  0.50337097  0.57531768  1  0  0.254727  0  3.842831  0  0  0.231941  0  4.108153  0  0  0.242844  0  4.123321  0  0  0.207219  0.225568  0  4.096358  0
C  C20  1  0.96892498  0.57531945  0.50337382  1  0  0.254887  0  3.842797  0  0  0.232053  0  4.108143  0  0  0.242955  0  4.12331  0  0  0.207285  0.225679  0  4.096351  0
C  C21  1  0.53107538  0.49662660  0.42468462  1  0  0.254949  0  3.842561  0  0  0.232106  0  4.107936  0  0  0.24301  0  4.123101  0  0  0.207349  0.225732  0  4.096142  0
C  C22  1  0.16853466  0.23348965  0.44539011  1  0  0.268974  0  3.84537  0  0  0.248657  0  4.1199  0  0  0.258955  0  4.137431  0  0  0.192844  0.242046  0  4.10876  0
C  C23  1  0.33146196  0.55461091  0.76650908  1  0  0.269012  0  3.845358  0  0  0.248629  0  4.119988  0  0  0.258924  0  4.137526  0  0  0.192855  0.242018  0  4.10885  0
C  C24  1  0.83146729  0.76651014  0.55461278  1  0  0.268942  0  3.845489  0  0  0.24859  0  4.12004  0  0  0.258887  0  4.137574  0  0  0.192813  0.241984  0  4.1089  0
C  C25  1  0.66853486  0.44538334  0.23349048  1  0  0.269105  0  3.845523  0  0  0.248736  0  4.120098  0  0  0.259034  0  4.137628  0  0  0.192827  0.242125  0  4.108959  0
C  C26  1  0.28109043  0.13228727  0.37299146  1  0  -0.024726  0  3.774371  0  0  -0.00155  0  4.003606  0  0  -0.007434  0  4.026145  0  0  0.005687  0.001877  0  3.988647  0
C  C27  1  0.21890892  0.62701241  0.86771264  1  0  -0.024848  0  3.774333  0  0  -0.001656  0  4.003612  0  0  -0.007536  0  4.026147  0  0  0.005679  0.001771  0  3.988653  0
C  C28  1  0.71891561  0.86771695  0.62701090  1  0  -0.024666  0  3.774285  0  0  -0.001465  0  4.003502  0  0  -0.007342  0  4.026041  0  0  0.005682  0.001962  0  3.988546  0
C  C29  1  0.78108749  0.37298516  0.13228620  1  0  -0.02472  0  3.774381  0  0  -0.001508  0  4.003609  0  0  -0.007388  0  4.026145  0  0  0.00574  0.001917  0  3.98865  0
C  C30  1  0.23717947  0.99468846  0.36971525  1  0  0.094901  0  3.640454  0  0  0.056246  0  3.886428  0  0  0.06392  0  3.900635  0  0  0.049378  0.05182  0  3.875757  0
C  C31  1  0.26282129  0.63028623  0.00531128  1  0  0.09505  0  3.640596  0  0  0.056427  0  3.886527  0  0  0.064104  0  3.900733  0  0  0.04945  0.052002  0  3.875859  0
C  C32  1  0.76282261  0.00531022  0.63028575  1  0  0.094778  0  3.640669  0  0  0.056176  0  3.886562  0  0  0.063844  0  3.900771  0  0  0.049345  0.051751  0  3.875893  0
C  C33  1  0.73717759  0.36971024  0.99469069  1  0  0.094834  0  3.64057  0  0  0.056209  0  3.886534  0  0  0.063883  0  3.900744  0  0  0.049351  0.051784  0  3.875863  0
C  C34  1  0.47061665  0.93020263  0.23081966  1  0  0.106437  0  3.712109  0  0  0.072953  0  3.962068  0  0  0.080269  0  3.980147  0  0  0.037832  0.067901  0  3.950231  0
C  C35  1  0.02938600  0.76918257  0.06980074  1  0  0.106567  0  3.711961  0  0  0.073131  0  3.961861  0  0  0.080416  0  3.979976  0  0  0.03793  0.068084  0  3.950021  0
C  C36  1  0.52938167  0.06979824  0.76917386  1  0  0.106537  0  3.712198  0  0  0.073091  0  3.962124  0  0  0.0804  0  3.980212  0  0  0.037858  0.068045  0  3.950285  0
C  C37  1  0.97061622  0.23081501  0.93020370  1  0  0.10649  0  3.712124  0  0  0.073036  0  3.962051  0  0  0.080349  0  3.980133  0  0  0.037872  0.067985  0  3.950213  0
C  C38  1  0.52296935  0.06438679  0.22899243  1  0  -0.120956  0  3.757779  0  0  -0.130396  0  4.008631  0  0  -0.138114  0  4.030436  0  0  -0.084542  -0.124786  0  3.993084  0
C  C39  1  0.97703118  0.77101195  0.93561440  1  0  -0.12111  0  3.75782  0  0  -0.130543  0  4.008715  0  0  -0.138255  0  4.030514  0  0  -0.084604  -0.124935  0  3.993171  0
C  C40  1  0.47702801  0.93562183  0.77100048  1  0  -0.121029  0  3.757699  0  0  -0.130483  0  4.008606  0  0  -0.1382  0  4.03041  0  0  -0.084579  -0.124875  0  3.993061  0
C  C41  1  0.02296729  0.22898784  0.06438684  1  0  -0.121017  0  3.758008  0  0  -0.13046  0  4.008885  0  0  -0.138176  0  4.03069  0  0  -0.084544  -0.124847  0  3.993339  0
C  C42  1  0.42710152  0.16745227  0.29961186  1  0  -0.021047  0  3.65007  0  0  -0.048595  0  3.892256  0  0  -0.043763  0  3.908926  0  0  -0.059029  -0.051666  0  3.881056  0
C  C43  1  0.07289622  0.70039308  0.83254798  1  0  -0.020977  0  3.650174  0  0  -0.048617  0  3.892331  0  0  -0.043784  0  3.908996  0  0  -0.059031  -0.051675  0  3.881123  0
C  C44  1  0.57289824  0.83254640  0.70038518  1  0  -0.020958  0  3.649792  0  0  -0.048604  0  3.891957  0  0  -0.043776  0  3.908624  0  0  -0.058996  -0.051677  0  3.880762  0
C  C45  1  0.92710033  0.29960340  0.16745645  1  0  -0.020974  0  3.650143  0  0  -0.048604  0  3.892301  0  0  -0.043775  0  3.908971  0  0  -0.059058  -0.05167  0  3.881096  0
N  N46  1  0.95832538  0.30709578  0.57286786  1  0  -0.310653  0  3.292494  0  0  -0.230828  0  3.589056  0  0  -0.249053  0  3.603738  0  0  -0.259346  -0.21889  0  3.579962  0
N  N47  1  0.54167525  0.42713386  0.69290577  1  0  -0.310677  0  3.292563  0  0  -0.230883  0  3.589148  0  0  -0.249105  0  3.603828  0  0  -0.259334  -0.218947  0  3.580056  0
N  N48  1  0.04167671  0.69290290  0.42713420  1  0  -0.310759  0  3.292607  0  0  -0.230944  0  3.589209  0  0  -0.249165  0  3.603888  0  0  -0.259332  -0.219003  0  3.580111  0
N  N49  1  0.45832670  0.57286593  0.30709605  1  0  -0.310779  0  3.292366  0  0  -0.230979  0  3.588996  0  0  -0.249201  0  3.603671  0  0  -0.259381  -0.219042  0  3.579902  0
N  N50  1  0.04677374  0.18339220  0.54130845  1  0  -0.299268  0  2.965192  0  0  -0.277053  0  3.234841  0  0  -0.287211  0  3.251181  0  0  -0.236191  -0.271292  0  3.224686  0
N  N51  1  0.45322515  0.45869361  0.81660876  1  0  -0.299185  0  2.965158  0  0  -0.276935  0  3.234826  0  0  -0.287095  0  3.25117  0  0  -0.236164  -0.271177  0  3.224671  0
N  N52  1  0.95322937  0.81660760  0.45869428  1  0  -0.299189  0  2.965244  0  0  -0.276962  0  3.234896  0  0  -0.287121  0  3.251237  0  0  -0.236137  -0.271203  0  3.224741  0
N  N53  1  0.54677373  0.54130285  0.18339213  1  0  -0.299288  0  2.965333  0  0  -0.277041  0  3.234991  0  0  -0.287201  0  3.251328  0  0  -0.236196  -0.271283  0  3.224838  0
N  N54  1  0.16411644  0.38373223  0.41473274  1  0  -0.46356  0  2.935331  0  0  -0.434552  0  3.207742  0  0  -0.449666  0  3.21991  0  0  -0.339368  -0.42464  0  3.199435  0
N  N55  1  0.33588299  0.58526784  0.61626768  1  0  -0.463559  0  2.935357  0  0  -0.434535  0  3.207789  0  0  -0.449648  0  3.219956  0  0  -0.339363  -0.424623  0  3.19948  0
N  N56  1  0.83588639  0.61626978  0.58526844  1  0  -0.463587  0  2.935401  0  0  -0.434567  0  3.207832  0  0  -0.449681  0  3.22  0  0  -0.33939  -0.424656  0  3.199525  0
N  N57  1  0.66411616  0.41472640  0.38373262  1  0  -0.463725  0  2.935356  0  0  -0.434684  0  3.207785  0  0  -0.449798  0  3.219948  0  0  -0.339422  -0.424773  0  3.199477  0
N  N58  1  0.32852907  0.89703619  0.29935920  1  0  -0.316264  0  3.30978  0  0  -0.229054  0  3.585752  0  0  -0.247432  0  3.600829  0  0  -0.32781  -0.21678  0  3.575243  0
N  N59  1  0.17147449  0.70064338  0.10296216  1  0  -0.316405  0  3.309992  0  0  -0.22923  0  3.586006  0  0  -0.247609  0  3.601087  0  0  -0.32794  -0.216957  0  3.575499  0
N  N60  1  0.67146925  0.10296471  0.70064073  1  0  -0.316264  0  3.309914  0  0  -0.229097  0  3.585884  0  0  -0.247472  0  3.600962  0  0  -0.327795  -0.216829  0  3.575379  0
N  N61  1  0.82852759  0.29935529  0.89703670  1  0  -0.316215  0  3.309779  0  0  -0.229034  0  3.585756  0  0  -0.247412  0  3.600834  0  0  -0.327807  -0.21676  0  3.575249  0
