# generated using pymatgen
data_CdH19C27N7O4
_symmetry_space_group_name_H-M   'P 1'
_cell_length_a   10.75248941
_cell_length_b   10.75235909
_cell_length_c   23.96309182
_cell_angle_alpha   94.18161669
_cell_angle_beta   94.18202726
_cell_angle_gamma   98.93935672
_symmetry_Int_Tables_number   1
_chemical_formula_structural   CdH19C27N7O4
_chemical_formula_sum   'Cd4 H76 C108 N28 O16'
_cell_volume   2719.54645814
_cell_formula_units_Z   4
loop_
 _symmetry_equiv_pos_site_id
 _symmetry_equiv_pos_as_xyz
  1  'x, y, z'
loop_
 _atom_site_type_symbol
 _atom_site_label
 _atom_site_symmetry_multiplicity
 _atom_site_fract_x
 _atom_site_fract_y
 _atom_site_fract_z
 _atom_site_occupancy
 _atom_site_pbe_bader_charge
 _atom_site_pbe_bader_spin_density
 _atom_site_pbe_cm5_charge
 _atom_site_pbe_ddec_charge
 _atom_site_pbe_ddec_spin_density
 _atom_site_pbe_ddec_sum_bond_order
 _atom_site_pbe_magmom
Cd  Cd0  1  0.36578966  0.88537981  0.50840368  1  1.244022  0  0.770367  0.855999  0  2.217984  0
Cd  Cd1  1  0.11460580  0.63420479  0.99159477  1  1.243729  0  0.770407  0.856025  0  2.217955  0
Cd  Cd2  1  0.63420702  0.11460236  0.49159091  1  1.244078  0  0.770355  0.856027  0  2.218017  0
Cd  Cd3  1  0.88537421  0.36578345  0.00841120  1  1.244191  0  0.770429  0.856132  0  2.217847  0
H  H4  1  0.18168371  0.71007120  0.83170871  1  0.104067  0  0.116233  0.091086  0  0.988555  0
H  H5  1  0.87496604  0.86629541  0.75117828  1  0.159089  0  0.120766  0.132046  0  1.000452  0
H  H6  1  0.99345707  0.52109664  0.68637434  1  0.040868  0  0.113511  0.08481  0  0.986503  0
H  H7  1  0.17529762  0.85489535  0.90457805  1  0.564626  0  0.302554  0.289805  0  1.019214  0
H  H8  1  0.21765166  0.04675674  0.00035306  1  0.084809  0  0.110005  0.131039  0  1.00455  0
H  H9  1  0.11416279  0.22578793  0.03650513  1  0.128521  0  0.107427  0.081359  0  1.059867  0
H  H10  1  0.86637417  0.20505568  0.89353027  1  0.120323  0  0.124002  0.115042  0  0.984709  0
H  H11  1  0.84514007  0.54023253  0.60457093  1  0.506531  0  0.335392  0.31228  0  0.910394  0
H  H12  1  0.66725843  0.53370547  0.50566962  1  0.136614  0  0.107011  0.129292  0  1.049394  0
H  H13  1  0.50383868  0.66024023  0.47185366  1  0.101735  0  0.111696  0.08663  0  1.033772  0
H  H14  1  0.54918339  0.89884781  0.61910485  1  0.126816  0  0.123451  0.110366  0  0.988479  0
H  H15  1  0.03011991  0.49454392  0.54938926  1  0.08265  0  0.095562  0.119878  0  1.031722  0
H  H16  1  0.08460504  0.61209610  0.60577964  1  0.041945  0  0.091271  0.098843  0  1.029258  0
H  H17  1  0.37236027  0.61096490  0.60135754  1  0.082308  0  0.094673  0.097641  0  1.043502  0
H  H18  1  0.51442591  0.46842112  0.63588576  1  0.053634  0  0.096499  0.098617  0  1.011408  0
H  H19  1  0.19662837  0.17012032  0.63244268  1  0.082527  0  0.096173  0.095465  0  1.060573  0
H  H20  1  0.05512846  0.31047753  0.59643275  1  0.061848  0  0.097454  0.097874  0  1.015549  0
H  H21  1  0.40832026  0.15315405  0.68248971  1  0.043092  0  0.095721  0.116364  0  1.020329  0
H  H22  1  0.54304885  0.26812124  0.67337694  1  0.033834  0  0.101965  0.12707  0  0.96798  0
H  H23  1  0.28994859  0.81831818  0.66828969  1  0.104176  0  0.116268  0.091168  0  0.988518  0
H  H24  1  0.13370629  0.12502436  0.74882061  1  0.159208  0  0.12077  0.132056  0  1.000459  0
H  H25  1  0.47891310  0.00655683  0.81362503  1  0.040767  0  0.113502  0.084802  0  0.986437  0
H  H26  1  0.14511654  0.82470254  0.59542231  1  0.564506  0  0.302562  0.289768  0  1.019176  0
H  H27  1  0.95325281  0.78235279  0.49964397  1  0.084362  0  0.110031  0.131084  0  1.004579  0
H  H28  1  0.77422311  0.88584199  0.46349438  1  0.128524  0  0.107441  0.081429  0  1.059897  0
H  H29  1  0.79494416  0.13361590  0.60647304  1  0.120538  0  0.124005  0.115008  0  0.98469  0
H  H30  1  0.45977569  0.15487290  0.89542724  1  0.506649  0  0.335436  0.312352  0  0.910221  0
H  H31  1  0.46629198  0.33275755  0.99432803  1  0.136762  0  0.107048  0.129323  0  1.049431  0
H  H32  1  0.33974812  0.49616686  0.02814471  1  0.101696  0  0.111661  0.086656  0  1.0338  0
H  H33  1  0.10113332  0.45080042  0.88089763  1  0.126728  0  0.123404  0.110287  0  0.98856  0
H  H34  1  0.50545307  0.96989184  0.95061055  1  0.082459  0  0.095512  0.119847  0  1.031683  0
H  H35  1  0.38789149  0.91540847  0.89422443  1  0.030833  0  0.091175  0.098714  0  1.02933  0
H  H36  1  0.38901851  0.62764846  0.89864009  1  0.082261  0  0.094633  0.097611  0  1.043483  0
H  H37  1  0.53156321  0.48558300  0.86411115  1  0.053658  0  0.096494  0.098699  0  1.011477  0
H  H38  1  0.82985468  0.80338743  0.86754828  1  0.082672  0  0.096068  0.095571  0  1.060605  0
H  H39  1  0.68950726  0.94488741  0.90356301  1  0.061716  0  0.09747  0.097935  0  1.015409  0
H  H40  1  0.84682798  0.59169227  0.81750969  1  0.042775  0  0.095731  0.116312  0  1.020364  0
H  H41  1  0.73186756  0.45695693  0.82662082  1  0.033993  0  0.101902  0.126965  0  0.96802  0
H  H42  1  0.81830879  0.28994128  0.16829667  1  0.104216  0  0.116225  0.091079  0  0.98854  0
H  H43  1  0.12502706  0.13370116  0.24881830  1  0.159149  0  0.120739  0.13203  0  1.000421  0
H  H44  1  0.00655978  0.47890642  0.31362813  1  0.040773  0  0.11348  0.084776  0  0.986471  0
H  H45  1  0.82470527  0.14511593  0.09542884  1  0.564606  0  0.302634  0.289846  0  1.01915  0
H  H46  1  0.78238435  0.95328824  0.99964368  1  0.085005  0  0.109969  0.130996  0  1.00458  0
H  H47  1  0.88586560  0.77425122  0.96349080  1  0.128606  0  0.107396  0.081472  0  1.06001  0
H  H48  1  0.13362763  0.79494792  0.10647345  1  0.120265  0  0.124026  0.114966  0  0.984722  0
H  H49  1  0.15487376  0.45977452  0.39541988  1  0.506649  0  0.335466  0.312371  0  0.910249  0
H  H50  1  0.33274312  0.46629604  0.49432318  1  0.136691  0  0.107028  0.129289  0  1.049407  0
H  H51  1  0.49616580  0.33976365  0.52814263  1  0.101812  0  0.11167  0.086572  0  1.033747  0
H  H52  1  0.45080594  0.10113711  0.38089754  1  0.126736  0  0.123397  0.110309  0  0.988527  0
H  H53  1  0.96988262  0.50545129  0.45060797  1  0.082607  0  0.095572  0.119925  0  1.031595  0
H  H54  1  0.91539842  0.38789924  0.39421721  1  0.042191  0  0.091211  0.098771  0  1.029305  0
H  H55  1  0.62763228  0.38903840  0.39865466  1  0.08213  0  0.094642  0.097594  0  1.043607  0
H  H56  1  0.48557405  0.53158225  0.36412040  1  0.053498  0  0.096475  0.098612  0  1.011567  0
H  H57  1  0.80338606  0.82985789  0.36754606  1  0.082553  0  0.096074  0.095509  0  1.060689  0
H  H58  1  0.94487859  0.68950433  0.40356172  1  0.06192  0  0.097495  0.097895  0  1.015522  0
H  H59  1  0.59169934  0.84684749  0.31750946  1  0.042978  0  0.095761  0.116342  0  1.020543  0
H  H60  1  0.45696570  0.73187557  0.32660858  1  0.033846  0  0.101962  0.12705  0  0.967938  0
H  H61  1  0.71006355  0.18169157  0.33170991  1  0.104071  0  0.116262  0.09113  0  0.988564  0
H  H62  1  0.86630965  0.87498597  0.25117954  1  0.159651  0  0.120764  0.132074  0  1.000447  0
H  H63  1  0.52109622  0.99344788  0.18637727  1  0.040772  0  0.113542  0.084829  0  0.986543  0
H  H64  1  0.85488978  0.17529048  0.40457706  1  0.56473  0  0.302568  0.289831  0  1.01924  0
H  H65  1  0.04672512  0.21761926  0.50036022  1  0.084609  0  0.109938  0.13099  0  1.004467  0
H  H66  1  0.22577372  0.11414587  0.53650456  1  0.128306  0  0.107415  0.08138  0  1.060038  0
H  H67  1  0.20506783  0.86638260  0.39352414  1  0.120335  0  0.124053  0.115088  0  0.984737  0
H  H68  1  0.54022614  0.84512889  0.10457893  1  0.506621  0  0.335456  0.312327  0  0.910391  0
H  H69  1  0.53370048  0.66725305  0.00567645  1  0.136649  0  0.10701  0.129281  0  1.049563  0
H  H70  1  0.66023287  0.50382896  0.97185942  1  0.101914  0  0.111636  0.086547  0  1.033603  0
H  H71  1  0.89885804  0.54919695  0.11910560  1  0.126781  0  0.123448  0.110329  0  0.988509  0
H  H72  1  0.49453334  0.03009995  0.04938361  1  0.082281  0  0.095455  0.119766  0  1.031675  0
H  H73  1  0.61208361  0.08457148  0.10577573  1  0.03039  0  0.091292  0.098834  0  1.029334  0
H  H74  1  0.61095080  0.37234253  0.10134854  1  0.082474  0  0.094641  0.097574  0  1.04361  0
H  H75  1  0.46841847  0.51441085  0.13588168  1  0.053784  0  0.096515  0.098697  0  1.011483  0
H  H76  1  0.17012427  0.19661072  0.13244710  1  0.082427  0  0.096153  0.09556  0  1.060703  0
H  H77  1  0.31047079  0.05510140  0.09643875  1  0.061279  0  0.097462  0.097893  0  1.015301  0
H  H78  1  0.15316152  0.40830853  0.18249317  1  0.042927  0  0.095737  0.11626  0  1.020495  0
H  H79  1  0.26813231  0.54303618  0.17338588  1  0.033898  0  0.101922  0.126964  0  0.967946  0
C  C80  1  0.10650571  0.70805959  0.79822262  1  0.569612  0  0.054009  0.066449  0  3.929656  0
C  C81  1  0.02941304  0.80268772  0.79764591  1  -0.020578  0  -0.002148  -0.038783  0  4.026153  0
C  C82  1  0.93607495  0.79467094  0.75338717  1  -0.054353  0  -0.049887  -0.076514  0  3.869891  0
C  C83  1  0.92099247  0.69383069  0.71176889  1  0.015799  0  -0.006369  -0.044128  0  4.03734  0
C  C84  1  0.00186657  0.60352616  0.71684885  1  0.554925  0  0.045308  0.045551  0  3.968531  0
C  C85  1  0.03822736  0.90620412  0.84133408  1  0.997077  0  0.228495  0.307878  0  4.032834  0
C  C86  1  0.99491287  0.06604442  0.89077627  1  0.514625  0  0.091607  0.102749  0  4.08639  0
C  C87  1  0.09366665  0.02055068  0.92215392  1  0.348851  0  0.106969  0.178095  0  4.032959  0
C  C88  1  0.14145218  0.07730258  0.97514755  1  0.123238  0  -0.091841  -0.2071  0  3.976139  0
C  C89  1  0.08385259  0.17635862  0.99534773  1  0.388292  0  0.02361  0.065898  0  3.994082  0
C  C90  1  0.94295789  0.16609457  0.91473766  1  0.44131  0  0.049635  0.024754  0  3.910036  0
C  C91  1  0.82208309  0.69288471  0.66652495  1  0.982791  0  0.230594  0.314864  0  4.01334  0
C  C92  1  0.67071951  0.75442969  0.61791340  1  0.449168  0  0.09288  0.099204  0  4.093036  0
C  C93  1  0.70393754  0.65077028  0.58520792  1  0.353408  0  0.113187  0.183842  0  4.031614  0
C  C94  1  0.64389707  0.61207086  0.53189270  1  0.050389  0  -0.088131  -0.207028  0  3.967671  0
C  C95  1  0.55391369  0.68279347  0.51336304  1  0.446424  0  0.028389  0.070299  0  3.97458  0
C  C96  1  0.57795934  0.81862758  0.59588411  1  0.541973  0  0.051275  0.033987  0  3.915954  0
C  C97  1  0.17793833  0.64209229  0.53052717  1  1.561039  0  0.202665  0.634714  0  4.156613  0
C  C98  1  0.11473071  0.55385797  0.57109869  1  -0.071492  0  -0.170003  -0.358097  0  3.939075  0
C  C99  1  0.20357839  0.47041195  0.59477150  1  -0.08789  0  -0.01201  0.133999  0  3.965565  0
C  C100  1  0.33326261  0.51357438  0.60750314  1  -0.055543  0  -0.098862  -0.141096  0  3.975763  0
C  C101  1  0.41353298  0.43306122  0.62725387  1  -0.029461  0  -0.093729  -0.134104  0  3.986729  0
C  C102  1  0.36652218  0.30740890  0.63563426  1  -0.067339  0  -0.011964  0.12951  0  3.96587  0
C  C103  1  0.23632519  0.26614877  0.62498314  1  -0.015451  0  -0.095128  -0.123713  0  3.972366  0
C  C104  1  0.15620975  0.34585527  0.60468420  1  -0.017813  0  -0.096186  -0.142652  0  3.988242  0
C  C105  1  0.45312759  0.21645878  0.65324077  1  -0.003996  0  -0.160626  -0.336943  0  3.908108  0
C  C106  1  0.48071979  0.13595425  0.60133266  1  1.577001  0  0.212929  0.645439  0  4.149557  0
C  C107  1  0.29195176  0.89349733  0.70177627  1  0.569681  0  0.053894  0.066312  0  3.929307  0
C  C108  1  0.19731507  0.97059234  0.70235208  1  -0.020378  0  -0.002159  -0.038783  0  4.025963  0
C  C109  1  0.20532878  0.06391754  0.74661071  1  -0.054386  0  -0.049916  -0.07654  0  3.869827  0
C  C110  1  0.30617104  0.07900907  0.78823071  1  0.015955  0  -0.006314  -0.044027  0  4.03717  0
C  C111  1  0.39648082  0.99814192  0.78315216  1  0.554749  0  0.0452  0.045475  0  3.968452  0
C  C112  1  0.09380295  0.96176906  0.65866403  1  0.997173  0  0.228465  0.307781  0  4.033007  0
C  C113  1  0.93396387  0.00508465  0.60922463  1  0.514461  0  0.091733  0.102774  0  4.086498  0
C  C114  1  0.97946379  0.90633781  0.57784378  1  0.348905  0  0.106952  0.178  0  4.032762  0
C  C115  1  0.92270645  0.85855128  0.52484911  1  0.123329  0  -0.091872  -0.207079  0  3.976083  0
C  C116  1  0.82365003  0.91615130  0.50464866  1  0.389399  0  0.023616  0.065807  0  3.994156  0
C  C117  1  0.83391196  0.05703575  0.58526156  1  0.441218  0  0.049678  0.024981  0  3.90975  0
C  C118  1  0.30711205  0.17791946  0.83347520  1  0.982915  0  0.230562  0.314687  0  4.013291  0
C  C119  1  0.24556238  0.32927700  0.88208649  1  0.448806  0  0.092844  0.099273  0  4.0928  0
C  C120  1  0.34922577  0.29607449  0.91478985  1  0.35336  0  0.113065  0.183667  0  4.031435  0
C  C121  1  0.38792811  0.35611298  0.96810672  1  0.050614  0  -0.088102  -0.207014  0  3.967712  0
C  C122  1  0.31719889  0.44609417  0.98663626  1  0.446247  0  0.028415  0.070259  0  3.974439  0
C  C123  1  0.18135656  0.42203431  0.90411602  1  0.542598  0  0.051329  0.034075  0  3.915983  0
C  C124  1  0.35791497  0.82207454  0.96948214  1  1.561759  0  0.20266  0.634489  0  4.156567  0
C  C125  1  0.44613427  0.88528278  0.92890316  1  -0.060688  0  -0.169895  -0.357908  0  3.938719  0
C  C126  1  0.52957672  0.79643106  0.90522792  1  -0.087906  0  -0.012123  0.133771  0  3.965643  0
C  C127  1  0.48641563  0.66674653  0.89249521  1  -0.055698  0  -0.098747  -0.140888  0  3.975753  0
C  C128  1  0.56693151  0.58647563  0.87274399  1  -0.029376  0  -0.093715  -0.134235  0  3.987464  0
C  C129  1  0.69257540  0.63348233  0.86436295  1  -0.06715  0  -0.01197  0.129492  0  3.966651  0
C  C130  1  0.73383739  0.76368268  0.87501240  1  -0.015028  0  -0.095216  -0.124053  0  3.972224  0
C  C131  1  0.65412993  0.84380360  0.89531370  1  -0.018098  0  -0.096037  -0.142478  0  3.988028  0
C  C132  1  0.78352557  0.54688398  0.84675780  1  -0.003685  0  -0.160515  -0.336711  0  3.90828  0
C  C133  1  0.86403082  0.51929077  0.89866526  1  1.576801  0  0.212775  0.645356  0  4.149623  0
C  C134  1  0.89349242  0.29195279  0.20178166  1  0.569589  0  0.05394  0.066475  0  3.929487  0
C  C135  1  0.97058586  0.19731354  0.20235556  1  -0.019052  0  -0.002115  -0.038818  0  4.026021  0
C  C136  1  0.06392111  0.20533081  0.24661341  1  -0.054901  0  -0.04986  -0.076469  0  3.869983  0
C  C137  1  0.07900827  0.30616710  0.28823170  1  0.015667  0  -0.006366  -0.04419  0  4.037549  0
C  C138  1  0.99814092  0.39647923  0.28315509  1  0.554901  0  0.045152  0.045461  0  3.968443  0
C  C139  1  0.96177251  0.09380193  0.15866631  1  0.996471  0  0.228484  0.30794  0  4.032715  0
C  C140  1  0.00509755  0.93397259  0.10922725  1  0.514724  0  0.091814  0.10284  0  4.08645  0
C  C141  1  0.90635034  0.97947376  0.07784458  1  0.349074  0  0.107064  0.178136  0  4.032735  0
C  C142  1  0.85857905  0.92273424  0.02485007  1  0.122925  0  -0.091924  -0.206972  0  3.976235  0
C  C143  1  0.91617192  0.82366970  0.00464778  1  0.389426  0  0.023712  0.065578  0  3.994397  0
C  C144  1  0.05704585  0.83391953  0.08526350  1  0.441283  0  0.04966  0.025076  0  3.910191  0
C  C145  1  0.17791846  0.30710571  0.33347295  1  0.983211  0  0.230433  0.314685  0  4.01345  0
C  C146  1  0.32927355  0.24555945  0.38208505  1  0.448929  0  0.092876  0.099243  0  4.092921  0
C  C147  1  0.29606876  0.34922642  0.41478864  1  0.353288  0  0.113103  0.183751  0  4.031558  0
C  C148  1  0.35610733  0.38792832  0.46810220  1  0.050605  0  -0.088095  -0.20698  0  3.967735  0
C  C149  1  0.44608981  0.31720561  0.48663391  1  0.446553  0  0.028444  0.070435  0  3.974431  0
C  C150  1  0.42203371  0.18135879  0.40411551  1  0.542176  0  0.051339  0.034029  0  3.915953  0
C  C151  1  0.82206515  0.35789660  0.46947366  1  1.56106  0  0.202668  0.634865  0  4.156653  0
C  C152  1  0.88527371  0.44613106  0.42890217  1  -0.071862  0  -0.169944  -0.358098  0  3.938885  0
C  C153  1  0.79641474  0.52958003  0.40522870  1  -0.088156  0  -0.012036  0.133964  0  3.965652  0
C  C154  1  0.66673163  0.48642347  0.39250269  1  -0.055055  0  -0.098887  -0.141116  0  3.975871  0
C  C155  1  0.58646590  0.56693725  0.37274794  1  -0.029207  0  -0.093674  -0.134025  0  3.986976  0
C  C156  1  0.63348499  0.69258233  0.36436174  1  -0.067266  0  -0.011866  0.129587  0  3.966316  0
C  C157  1  0.76367721  0.73384261  0.37500980  1  -0.015097  0  -0.095163  -0.123934  0  3.972386  0
C  C158  1  0.84379552  0.65413196  0.39531288  1  -0.018262  0  -0.096159  -0.142597  0  3.988047  0
C  C159  1  0.54688053  0.78353722  0.34675332  1  -0.004277  0  -0.16062  -0.336877  0  3.908401  0
C  C160  1  0.51927489  0.86402382  0.39865842  1  1.57709  0  0.212839  0.645692  0  4.14952  0
C  C161  1  0.70805188  0.10650928  0.29822383  1  0.569627  0  0.05391  0.066469  0  3.929826  0
C  C162  1  0.80269333  0.02941872  0.29764787  1  -0.019881  0  -0.002104  -0.038887  0  4.026022  0
C  C163  1  0.79467482  0.93608625  0.25338848  1  -0.054903  0  -0.04993  -0.076567  0  3.869814  0
C  C164  1  0.69383266  0.92100130  0.21177034  1  0.015418  0  -0.006293  -0.044114  0  4.037141  0
C  C165  1  0.60352284  0.00186379  0.21684916  1  0.555009  0  0.045236  0.045638  0  3.968528  0
C  C166  1  0.90620437  0.03823156  0.34133476  1  0.996932  0  0.228437  0.307978  0  4.032834  0
C  C167  1  0.06604149  0.99491469  0.39077114  1  0.514723  0  0.091846  0.102771  0  4.0867  0
C  C168  1  0.02054255  0.09365337  0.42215720  1  0.349006  0  0.106903  0.178033  0  4.0328  0
C  C169  1  0.07728848  0.14143074  0.47515210  1  0.123394  0  -0.09167  -0.206797  0  3.975914  0
C  C170  1  0.17635345  0.08383852  0.49535178  1  0.388519  0  0.02358  0.065748  0  3.994319  0
C  C171  1  0.16609811  0.94296243  0.41473431  1  0.441326  0  0.049556  0.024828  0  3.91032  0
C  C172  1  0.69288882  0.82208678  0.16652773  1  0.983123  0  0.230455  0.31458  0  4.013143  0
C  C173  1  0.75443654  0.67072429  0.11791583  1  0.448993  0  0.092808  0.099057  0  4.093003  0
C  C174  1  0.65077047  0.70393668  0.08521476  1  0.35331  0  0.113139  0.183911  0  4.031749  0
C  C175  1  0.61206338  0.64389375  0.03189803  1  0.050559  0  -0.088107  -0.207136  0  3.967905  0
C  C176  1  0.68278977  0.55390937  0.01336999  1  0.446665  0  0.028413  0.070514  0  3.974303  0
C  C177  1  0.81863579  0.57796786  0.09588696  1  0.542298  0  0.051337  0.03413  0  3.915978  0
C  C178  1  0.64208607  0.17793188  0.03052873  1  1.561674  0  0.202608  0.634433  0  4.156742  0
C  C179  1  0.55384569  0.11470911  0.07109875  1  -0.060072  0  -0.169899  -0.357915  0  3.938841  0
C  C180  1  0.47040410  0.20355904  0.09477062  1  -0.088136  0  -0.0121  0.133838  0  3.965396  0
C  C181  1  0.51356422  0.33324433  0.10750165  1  -0.055574  0  -0.098699  -0.140899  0  3.975864  0
C  C182  1  0.43305587  0.41351635  0.12725187  1  -0.029595  0  -0.09379  -0.134277  0  3.987265  0
C  C183  1  0.30740927  0.36650934  0.13563866  1  -0.067133  0  -0.01198  0.129613  0  3.966052  0
C  C184  1  0.26614631  0.23631345  0.12498598  1  -0.015618  0  -0.095217  -0.124189  0  3.97229  0
C  C185  1  0.34585382  0.15618795  0.10468914  1  -0.01682  0  -0.096092  -0.14233  0  3.987646  0
C  C186  1  0.21646392  0.45311774  0.15324425  1  -0.004284  0  -0.160588  -0.336686  0  3.908097  0
C  C187  1  0.13596268  0.48072560  0.10134068  1  1.577049  0  0.212675  0.645396  0  4.149564  0
N  N188  1  0.09280345  0.61073034  0.75890685  1  -1.188158  0  -0.324984  -0.25512  0  3.310196  0
N  N189  1  0.11979597  0.91960924  0.88945830  1  -1.309086  0  -0.378917  -0.328671  0  3.553775  0
N  N190  1  0.96332020  0.99388204  0.84039399  1  -1.134498  0  -0.32951  -0.38303  0  3.166074  0
N  N191  1  0.98741621  0.21828648  0.96642056  1  -1.238044  0  -0.347607  -0.26251  0  3.591087  0
N  N192  1  0.79971648  0.61225624  0.61736750  1  -1.251702  0  -0.371446  -0.324821  0  3.535583  0
N  N193  1  0.74473360  0.77769910  0.66784323  1  -1.172562  0  -0.326817  -0.373445  0  3.184018  0
N  N194  1  0.52260711  0.78307795  0.54404595  1  -1.250214  0  -0.344198  -0.266772  0  3.593459  0
N  N195  1  0.38928752  0.90720255  0.74109330  1  -1.18826  0  -0.324838  -0.255025  0  3.309915  0
N  N196  1  0.08040350  0.88020577  0.61054109  1  -1.309207  0  -0.379002  -0.328589  0  3.553791  0
N  N197  1  0.00612761  0.03667699  0.65960526  1  -1.134136  0  -0.329493  -0.382989  0  3.166114  0
N  N198  1  0.78171867  0.01257778  0.53357986  1  -1.238912  0  -0.347656  -0.262628  0  3.59086  0
N  N199  1  0.38774550  0.20029530  0.88263233  1  -1.251555  0  -0.371474  -0.324831  0  3.535365  0
N  N200  1  0.22229000  0.25526136  0.83215744  1  -1.172778  0  -0.326714  -0.373277  0  3.183765  0
N  N201  1  0.21690976  0.47738651  0.95595132  1  -1.250632  0  -0.344194  -0.266796  0  3.593438  0
N  N202  1  0.90719747  0.38927780  0.24109739  1  -1.188298  0  -0.324813  -0.255016  0  3.310024  0
N  N203  1  0.88021148  0.08040444  0.11054004  1  -1.309451  0  -0.379054  -0.328745  0  3.553897  0
N  N204  1  0.03668544  0.00612681  0.15961041  1  -1.134412  0  -0.329601  -0.383177  0  3.16592  0
N  N205  1  0.01259222  0.78172922  0.03357869  1  -1.238711  0  -0.347672  -0.262621  0  3.591271  0
N  N206  1  0.20028983  0.38774324  0.38262830  1  -1.251828  0  -0.371521  -0.324902  0  3.535508  0
N  N207  1  0.25526035  0.22228182  0.33215667  1  -1.172993  0  -0.326609  -0.373202  0  3.183787  0
N  N208  1  0.47738505  0.21691848  0.45595060  1  -1.250415  0  -0.34423  -0.266822  0  3.593479  0
N  N209  1  0.61072938  0.09280517  0.25890931  1  -1.188299  0  -0.324934  -0.255186  0  3.310301  0
N  N210  1  0.91960096  0.11978791  0.38945908  1  -1.309413  0  -0.378977  -0.328803  0  3.55393  0
N  N211  1  0.99388442  0.96332709  0.34039125  1  -1.13463  0  -0.329577  -0.383077  0  3.166156  0
N  N212  1  0.21828577  0.98742144  0.46641671  1  -1.237988  0  -0.347635  -0.262603  0  3.591394  0
N  N213  1  0.61225261  0.79971707  0.11737112  1  -1.252042  0  -0.371462  -0.324787  0  3.535848  0
N  N214  1  0.77771367  0.74474528  0.16784392  1  -1.172799  0  -0.326676  -0.373189  0  3.183781  0
N  N215  1  0.78308060  0.52260696  0.04405093  1  -1.250506  0  -0.344243  -0.26692  0  3.593502  0
O  O216  1  0.23009586  0.75284176  0.55405308  1  -1.192853  0  -0.341626  -0.584486  0  2.322728  0
O  O217  1  0.18093715  0.60684462  0.47989033  1  -1.188276  0  -0.335594  -0.566931  0  2.081031  0
O  O218  1  0.58270446  0.17379128  0.57961713  1  -1.171829  0  -0.332361  -0.575785  0  2.290855  0
O  O219  1  0.39825429  0.04038888  0.58350473  1  -1.194935  0  -0.333348  -0.57706  0  2.267467  0
O  O220  1  0.24715116  0.76993681  0.94596214  1  -1.192777  0  -0.341623  -0.58437  0  2.322562  0
O  O221  1  0.39319235  0.81905699  0.02011158  1  -1.188858  0  -0.335561  -0.566788  0  2.08107  0
O  O222  1  0.82619700  0.41730529  0.92038305  1  -1.171655  0  -0.332312  -0.575742  0  2.290699  0
O  O223  1  0.95960005  0.60174899  0.91649019  1  -1.195012  0  -0.333264  -0.577001  0  2.267547  0
O  O224  1  0.76991135  0.24714765  0.44594538  1  -1.192923  0  -0.341537  -0.584495  0  2.322719  0
O  O225  1  0.81908151  0.39315031  0.52011195  1  -1.188235  0  -0.335659  -0.567032  0  2.081038  0
O  O226  1  0.41729774  0.82617957  0.42037604  1  -1.171574  0  -0.332254  -0.575764  0  2.290579  0
O  O227  1  0.60172453  0.95959990  0.41648912  1  -1.19494  0  -0.3334  -0.577324  0  2.267476  0
O  O228  1  0.75282865  0.23009270  0.05405963  1  -1.193186  0  -0.341557  -0.584308  0  2.322748  0
O  O229  1  0.60684135  0.18093368  0.97989102  1  -1.188335  0  -0.335633  -0.566908  0  2.081091  0
O  O230  1  0.17380028  0.58270889  0.07962501  1  -1.171559  0  -0.332235  -0.57575  0  2.290807  0
O  O231  1  0.04039053  0.39826595  0.08351228  1  -1.194822  0  -0.333241  -0.577114  0  2.267405  0
