# generated using pymatgen
data_NaHoH16(C3O2)6
_symmetry_space_group_name_H-M   'P 1'
_cell_length_a   6.78817287
_cell_length_b   7.45638110
_cell_length_c   19.84537480
_cell_angle_alpha   90.00068989
_cell_angle_beta   99.86518516
_cell_angle_gamma   90.00036908
_symmetry_Int_Tables_number   1
_chemical_formula_structural   NaHoH16(C3O2)6
_chemical_formula_sum   'Na2 Ho2 H32 C36 O24'
_cell_volume   989.62509748
_cell_formula_units_Z   2
loop_
 _symmetry_equiv_pos_site_id
 _symmetry_equiv_pos_as_xyz
  1  'x, y, z'
loop_
 _atom_site_type_symbol
 _atom_site_label
 _atom_site_symmetry_multiplicity
 _atom_site_fract_x
 _atom_site_fract_y
 _atom_site_fract_z
 _atom_site_occupancy
 _atom_site_hle17_bader_spin_density
 _atom_site_hle17_ddec_charge
 _atom_site_hle17_ddec_spin_density
 _atom_site_hle17_ddec_sum_bond_order
 _atom_site_hle17_magmom
 _atom_site_hse06_10hf_bader_spin_density
 _atom_site_hse06_10hf_ddec_charge
 _atom_site_hse06_10hf_ddec_spin_density
 _atom_site_hse06_10hf_ddec_sum_bond_order
 _atom_site_hse06_10hf_magmom
 _atom_site_hse06_bader_spin_density
 _atom_site_hse06_ddec_charge
 _atom_site_hse06_ddec_spin_density
 _atom_site_hse06_ddec_sum_bond_order
 _atom_site_hse06_magmom
 _atom_site_pbe_bader_spin_density
 _atom_site_pbe_cm5_charge
 _atom_site_pbe_ddec_charge
 _atom_site_pbe_ddec_spin_density
 _atom_site_pbe_ddec_sum_bond_order
 _atom_site_pbe_magmom
Na  Na0  1  0.83646706  0.24996695  0.67226151  1  0  0.927225  0  0.357149  0  0  0.89845  0  0.48992  0  0  0.907101  0  0.469198  0  0  0.698733  0.891788  0  0.50517  0
Na  Na1  1  0.16353377  0.74996339  0.32773779  1  0  0.927206  0  0.357154  0  0  0.898416  0  0.489944  0  0  0.90707  0  0.46922  0  0  0.69869  0.891749  0  0.505197  0
Ho  Ho2  1  0.70717650  0.74996503  0.41471312  1  0  2.202997  0  1.725724  0  0  2.055422  0  2.216426  0  0  2.102591  0  2.176471  0  0  1.546295  2.018646  0  2.248888  0
Ho  Ho3  1  0.29282732  0.24995994  0.58528585  1  0  2.203059  0  1.725736  0  0  2.055527  0  2.216401  0  0  2.102684  0  2.176481  0  0  1.546403  2.018657  0  2.249007  0
H  H4  1  0.76597013  0.14794698  0.93726169  1  0  0.084568  0  0.950744  0  0  0.096554  0  1.00968  0  0  0.099549  0  1.008691  0  0  0.097164  0.094417  0  1.010459  0
H  H5  1  0.23402522  0.64794470  0.06273935  1  0  0.084523  0  0.950751  0  0  0.096542  0  1.009655  0  0  0.099537  0  1.008667  0  0  0.097169  0.094407  0  1.010438  0
H  H6  1  0.17175327  0.35234200  0.93705021  1  0  0.085138  0  0.950536  0  0  0.096843  0  1.009728  0  0  0.099834  0  1.008754  0  0  0.097646  0.094727  0  1.010483  0
H  H7  1  0.82824406  0.85232707  0.06295036  1  0  0.085164  0  0.950572  0  0  0.096858  0  1.009769  0  0  0.09985  0  1.008796  0  0  0.097649  0.094742  0  1.010521  0
H  H8  1  0.70423717  0.15141293  0.81030162  1  0  0.108714  0  0.965569  0  0  0.11842  0  1.027023  0  0  0.12186  0  1.024312  0  0  0.109241  0.115925  0  1.028994  0
H  H9  1  0.29575373  0.65142448  0.18969817  1  0  0.108701  0  0.965474  0  0  0.118421  0  1.026929  0  0  0.121855  0  1.024218  0  0  0.109215  0.11593  0  1.028901  0
H  H10  1  0.10709316  0.34889439  0.81008154  1  0  0.109662  0  0.965306  0  0  0.119563  0  1.02642  0  0  0.122991  0  1.023785  0  0  0.109627  0.117015  0  1.028455  0
H  H11  1  0.89290264  0.84889198  0.18991892  1  0  0.109686  0  0.965199  0  0  0.119584  0  1.026335  0  0  0.123016  0  1.023685  0  0  0.109646  0.117035  0  1.028367  0
H  H12  1  0.28210196  0.14627136  0.15722517  1  0  0.095039  0  0.959043  0  0  0.104868  0  1.021207  0  0  0.108183  0  1.018734  0  0  0.105307  0.102466  0  1.023006  0
H  H13  1  0.71789189  0.64625542  0.84277275  1  0  0.095049  0  0.959056  0  0  0.104887  0  1.021212  0  0  0.108205  0  1.018735  0  0  0.105326  0.102484  0  1.02302  0
H  H14  1  0.87482229  0.35348352  0.15739883  1  0  0.094895  0  0.95917  0  0  0.104711  0  1.021263  0  0  0.10801  0  1.01882  0  0  0.105347  0.102297  0  1.023092  0
H  H15  1  0.12517504  0.85347352  0.84260325  1  0  0.09488  0  0.959165  0  0  0.104664  0  1.021279  0  0  0.10796  0  1.018847  0  0  0.105341  0.102249  0  1.023101  0
H  H16  1  0.49373965  0.26829677  0.43548634  1  0  0.103965  0  0.922078  0  0  0.110463  0  0.981336  0  0  0.113915  0  0.978379  0  0  0.130832  0.107951  0  0.983641  0
H  H17  1  0.50627630  0.76828808  0.56451697  1  0  0.103959  0  0.922043  0  0  0.110457  0  0.98131  0  0  0.113905  0  0.978361  0  0  0.13082  0.107947  0  0.983616  0
H  H18  1  0.94183919  0.23169587  0.43554980  1  0  0.103417  0  0.92548  0  0  0.11031  0  0.983966  0  0  0.113794  0  0.980927  0  0  0.130845  0.1078  0  0.986265  0
H  H19  1  0.05817343  0.73167116  0.56445012  1  0  0.10355  0  0.925502  0  0  0.110427  0  0.983976  0  0  0.113916  0  0.980929  0  0  0.130845  0.10791  0  0.986274  0
H  H20  1  0.56424941  0.11513273  0.34431153  1  0  0.401105  0  0.894861  0  0  0.371057  0  0.97036  0  0  0.383192  0  0.956771  0  0  0.306064  0.362566  0  0.979563  0
H  H21  1  0.43576207  0.61511718  0.65568981  1  0  0.401137  0  0.894851  0  0  0.371086  0  0.970357  0  0  0.383223  0  0.956741  0  0  0.306078  0.3626  0  0.979548  0
H  H22  1  0.78003659  0.38487816  0.34434687  1  0  0.402584  0  0.891361  0  0  0.371945  0  0.967961  0  0  0.384135  0  0.954447  0  0  0.306308  0.363378  0  0.977328  0
H  H23  1  0.21995806  0.88486806  0.65565418  1  0  0.402626  0  0.89146  0  0  0.371988  0  0.96803  0  0  0.38418  0  0.954517  0  0  0.306308  0.363414  0  0.977401  0
H  H24  1  0.98074121  0.90894221  0.73567327  1  0  0.414305  0  0.892905  0  0  0.383759  0  0.95695  0  0  0.393903  0  0.941782  0  0  0.287638  0.376571  0  0.96769  0
H  H25  1  0.01925669  0.40894800  0.26432405  1  0  0.414288  0  0.89294  0  0  0.383747  0  0.956969  0  0  0.393888  0  0.941804  0  0  0.287612  0.37656  0  0.967708  0
H  H26  1  0.75522574  0.59096827  0.73559328  1  0  0.416593  0  0.889933  0  0  0.38552  0  0.954845  0  0  0.395735  0  0.939599  0  0  0.288449  0.378292  0  0.965629  0
H  H27  1  0.24476907  0.09097001  0.26440546  1  0  0.416638  0  0.889865  0  0  0.385551  0  0.954794  0  0  0.395764  0  0.939552  0  0  0.288463  0.378319  0  0.965587  0
H  H28  1  0.74564835  0.89713003  0.72712969  1  0  0.416752  0  0.874673  0  0  0.389271  0  0.933226  0  0  0.398156  0  0.920029  0  0  0.296796  0.382973  0  0.942589  0
H  H29  1  0.25434645  0.39714283  0.27286790  1  0  0.416764  0  0.874751  0  0  0.389295  0  0.933216  0  0  0.398183  0  0.920014  0  0  0.29681  0.382991  0  0.942594  0
H  H30  1  0.98168151  0.60318786  0.72700532  1  0  0.415988  0  0.874444  0  0  0.388791  0  0.933538  0  0  0.397648  0  0.920387  0  0  0.296582  0.382507  0  0.942875  0
H  H31  1  0.01831342  0.10318319  0.27299298  1  0  0.41596  0  0.874462  0  0  0.388749  0  0.933584  0  0  0.397605  0  0.920434  0  0  0.296559  0.382461  0  0.942928  0
H  H32  1  0.21833994  0.14836130  0.03069165  1  0  0.08348  0  0.956108  0  0  0.09519  0  1.016897  0  0  0.098176  0  1.015495  0  0  0.097553  0.093063  0  1.017977  0
H  H33  1  0.78165542  0.64834042  0.96930737  1  0  0.083548  0  0.955988  0  0  0.095226  0  1.016812  0  0  0.098212  0  1.01541  0  0  0.097582  0.09309  0  1.017896  0
H  H34  1  0.81243920  0.35155275  0.03088902  1  0  0.084287  0  0.957587  0  0  0.096257  0  1.017823  0  0  0.099257  0  1.01643  0  0  0.098138  0.094144  0  1.018862  0
H  H35  1  0.18756560  0.85154049  0.96911349  1  0  0.084304  0  0.957662  0  0  0.096347  0  1.017819  0  0  0.09935  0  1.01642  0  0  0.09816  0.094227  0  1.018864  0
C  C36  1  0.62292881  0.19583799  0.90947796  1  0  -0.115893  0  3.740606  0  0  -0.133211  0  3.990432  0  0  -0.138697  0  4.012919  0  0  -0.088811  -0.129552  0  3.975077  0
C  C37  1  0.37705654  0.69584011  0.09052169  1  0  -0.115918  0  3.740501  0  0  -0.133246  0  3.990334  0  0  -0.138735  0  4.01282  0  0  -0.088866  -0.12959  0  3.974989  0
C  C38  1  0.28714210  0.30435346  0.90936244  1  0  -0.115214  0  3.742951  0  0  -0.13235  0  3.992813  0  0  -0.137824  0  4.015306  0  0  -0.08865  -0.128709  0  3.977445  0
C  C39  1  0.71285028  0.80435351  0.09063912  1  0  -0.115321  0  3.743177  0  0  -0.132432  0  3.993024  0  0  -0.137912  0  4.015523  0  0  -0.088687  -0.128791  0  3.977653  0
C  C40  1  0.58864269  0.19643355  0.83839593  1  0  -0.05282  0  3.715132  0  0  -0.076688  0  3.960611  0  0  -0.075211  0  3.981022  0  0  -0.075735  -0.077377  0  3.946721  0
C  C41  1  0.41133968  0.69643682  0.16160153  1  0  -0.052733  0  3.715148  0  0  -0.07665  0  3.960636  0  0  -0.075169  0  3.98103  0  0  -0.075696  -0.077348  0  3.946767  0
C  C42  1  0.25066916  0.30377552  0.83828846  1  0  -0.054988  0  3.713404  0  0  -0.079076  0  3.959023  0  0  -0.077653  0  3.979444  0  0  -0.076682  -0.079703  0  3.945154  0
C  C43  1  0.74932471  0.80377271  0.16171168  1  0  -0.054853  0  3.713356  0  0  -0.078961  0  3.958942  0  0  -0.077542  0  3.97937  0  0  -0.076664  -0.079587  0  3.945079  0
C  C44  1  0.39732688  0.19367091  0.12950826  1  0  -0.048468  0  3.737611  0  0  -0.073214  0  3.986147  0  0  -0.071978  0  4.007132  0  0  -0.078541  -0.073743  0  3.971774  0
C  C45  1  0.60266144  0.69365923  0.87049055  1  0  -0.048523  0  3.737544  0  0  -0.073282  0  3.986068  0  0  -0.072048  0  4.007056  0  0  -0.078575  -0.073812  0  3.971683  0
C  C46  1  0.73191067  0.30612054  0.12960897  1  0  -0.04726  0  3.734818  0  0  -0.071859  0  3.983146  0  0  -0.070634  0  4.004142  0  0  -0.078334  -0.072394  0  3.968792  0
C  C47  1  0.26808770  0.80610825  0.87039296  1  0  -0.047204  0  3.734799  0  0  -0.071769  0  3.983123  0  0  -0.070547  0  4.004117  0  0  -0.078255  -0.0723  0  3.968764  0
C  C48  1  0.64566730  0.08636834  0.51051330  1  0  0.707419  0  3.826924  0  0  0.657015  0  4.129616  0  0  0.691603  0  4.118155  0  0  0.235391  0.633474  0  4.136592  0
C  C49  1  0.35434689  0.58634562  0.48948706  1  0  0.707766  0  3.826815  0  0  0.657319  0  4.129555  0  0  0.691894  0  4.118121  0  0  0.235577  0.633758  0  4.136552  0
C  C50  1  0.86498177  0.41375836  0.51053949  1  0  0.707801  0  3.828513  0  0  0.657472  0  4.130783  0  0  0.692188  0  4.119113  0  0  0.235433  0.633849  0  4.137873  0
C  C51  1  0.13503858  0.91375985  0.48946322  1  0  0.708186  0  3.827771  0  0  0.657662  0  4.130314  0  0  0.692381  0  4.118636  0  0  0.235536  0.634052  0  4.137383  0
C  C52  1  0.36374680  0.24982697  0.72655192  1  0  0.673417  0  3.891103  0  0  0.630113  0  4.176564  0  0  0.664065  0  4.168686  0  0  0.202212  0.607207  0  4.180955  0
C  C53  1  0.63624508  0.74982978  0.27344383  1  0  0.673442  0  3.891301  0  0  0.630109  0  4.176755  0  0  0.664057  0  4.168874  0  0  0.202245  0.607205  0  4.181154  0
C  C54  1  0.40169995  0.25001204  0.80238720  1  0  -0.067551  0  3.742672  0  0  -0.046416  0  3.9784  0  0  -0.05609  0  4.002315  0  0  -0.016667  -0.040303  0  3.962453  0
C  C55  1  0.59828893  0.75001353  0.19760988  1  0  -0.067831  0  3.743021  0  0  -0.046627  0  3.978696  0  0  -0.056283  0  4.002574  0  0  -0.016737  -0.04052  0  3.962772  0
C  C56  1  0.63075149  0.18661691  0.44299739  1  0  0.059447  0  3.594433  0  0  0.033673  0  3.844331  0  0  0.034792  0  3.849683  0  0  0.003365  0.032692  0  3.840954  0
C  C57  1  0.36926816  0.68659914  0.55700426  1  0  0.05933  0  3.594446  0  0  0.033554  0  3.84434  0  0  0.034676  0  3.849699  0  0  0.003441  0.032576  0  3.840967  0
C  C58  1  0.81233339  0.31341890  0.44302877  1  0  0.058133  0  3.597893  0  0  0.032834  0  3.846447  0  0  0.033946  0  3.851765  0  0  0.003031  0.031884  0  3.843038  0
C  C59  1  0.18767552  0.81340275  0.55697281  1  0  0.057981  0  3.597696  0  0  0.032802  0  3.846158  0  0  0.033907  0  3.851493  0  0  0.003061  0.031857  0  3.84275  0
C  C60  1  0.58275578  0.24991246  0.16591686  1  0  -0.090878  0  3.776854  0  0  -0.070693  0  4.020945  0  0  -0.08067  0  4.046399  0  0  -0.021331  -0.064232  0  4.003736  0
C  C61  1  0.41723457  0.74989852  0.83408484  1  0  -0.090891  0  3.776905  0  0  -0.070688  0  4.020971  0  0  -0.080669  0  4.046425  0  0  -0.021402  -0.064226  0  4.00376  0
C  C62  1  0.62083284  0.24991648  0.24206888  1  0  0.675702  0  3.829565  0  0  0.615586  0  4.131823  0  0  0.649679  0  4.124546  0  0  0.230301  0.592587  0  4.135946  0
C  C63  1  0.37916199  0.74990389  0.75793359  1  0  0.675759  0  3.82924  0  0  0.615645  0  4.131482  0  0  0.649745  0  4.124196  0  0  0.230285  0.592639  0  4.135615  0
C  C64  1  0.51080305  0.24996357  0.02158285  1  0  0.067029  0  3.768437  0  0  0.079868  0  4.002233  0  0  0.08175  0  4.025403  0  0  0.00153  0.078749  0  3.986359  0
C  C65  1  0.48919479  0.74996006  0.97841627  1  0  0.067305  0  3.76838  0  0  0.079953  0  4.002443  0  0  0.081831  0  4.025612  0  0  0.00159  0.078829  0  3.986561  0
C  C66  1  0.47332057  0.25003333  0.94618303  1  0  0.059205  0  3.782132  0  0  0.070839  0  4.017837  0  0  0.072604  0  4.041947  0  0  -0.001885  0.069821  0  4.00134  0
C  C67  1  0.52668026  0.75001771  0.05381778  1  0  0.059288  0  3.782084  0  0  0.070955  0  4.017831  0  0  0.072723  0  4.041943  0  0  -0.001817  0.069945  0  4.001326  0
C  C68  1  0.36181108  0.19524148  0.05846073  1  0  -0.118291  0  3.742023  0  0  -0.135685  0  3.991301  0  0  -0.140613  0  4.013172  0  0  -0.089191  -0.1324  0  3.976358  0
C  C69  1  0.63817726  0.69522558  0.94153809  1  0  -0.118363  0  3.741812  0  0  -0.135668  0  3.991148  0  0  -0.140593  0  4.01302  0  0  -0.089162  -0.13237  0  3.976191  0
C  C70  1  0.69658629  0.30467892  0.05856572  1  0  -0.119454  0  3.745108  0  0  -0.137109  0  3.994249  0  0  -0.142061  0  4.016139  0  0  -0.089459  -0.133812  0  3.979297  0
C  C71  1  0.30341356  0.80466375  0.94143730  1  0  -0.119654  0  3.745225  0  0  -0.137321  0  3.994424  0  0  -0.142275  0  4.01632  0  0  -0.089551  -0.134011  0  3.979456  0
O  O72  1  0.47874453  0.20765882  0.27415342  1  0  -0.646374  0  2.019497  0  0  -0.572729  0  2.232106  0  0  -0.599075  0  2.221742  0  0  -0.301204  -0.554557  0  2.238872  0
O  O73  1  0.52124691  0.70763797  0.72584715  1  0  -0.646323  0  2.019315  0  0  -0.572691  0  2.231939  0  0  -0.599018  0  2.221527  0  0  -0.301192  -0.554568  0  2.238785  0
O  O74  1  0.79504622  0.29219941  0.27416602  1  0  -0.645336  0  2.018604  0  0  -0.572044  0  2.231664  0  0  -0.598067  0  2.220954  0  0  -0.300676  -0.553915  0  2.238534  0
O  O75  1  0.20495053  0.79218209  0.72583374  1  0  -0.645449  0  2.018571  0  0  -0.572151  0  2.231624  0  0  -0.598187  0  2.220918  0  0  -0.300678  -0.554017  0  2.23853  0
O  O76  1  0.85830793  0.98081450  0.73425756  1  0  -0.865997  0  1.768459  0  0  -0.827584  0  1.926872  0  0  -0.842096  0  1.895693  0  0  -0.652811  -0.817227  0  1.94882  0
O  O77  1  0.14168472  0.48081971  0.26573323  1  0  -0.865992  0  1.768622  0  0  -0.8276  0  1.926953  0  0  -0.84211  0  1.895775  0  0  -0.652795  -0.817239  0  1.948904  0
O  O78  1  0.87634665  0.51929308  0.73410642  1  0  -0.867574  0  1.764726  0  0  -0.829107  0  1.924465  0  0  -0.843606  0  1.893064  0  0  -0.653766  -0.818743  0  1.946558  0
O  O79  1  0.12364599  0.01929282  0.26588833  1  0  -0.867577  0  1.764691  0  0  -0.829064  0  1.924499  0  0  -0.843563  0  1.893101  0  0  -0.653724  -0.8187  0  1.946596  0
O  O80  1  0.59633144  0.16785761  0.56159673  1  0  -0.773845  0  2.080619  0  0  -0.730261  0  2.356314  0  0  -0.753951  0  2.341579  0  0  -0.439713  -0.713187  0  2.365585  0
O  O81  1  0.40367905  0.66786036  0.43840479  1  0  -0.773891  0  2.080325  0  0  -0.730292  0  2.356037  0  0  -0.753976  0  2.341307  0  0  -0.439746  -0.713235  0  2.365329  0
O  O82  1  0.96562603  0.33242645  0.56162835  1  0  -0.773395  0  2.080543  0  0  -0.729838  0  2.355774  0  0  -0.753611  0  2.341079  0  0  -0.439391  -0.712751  0  2.365078  0
O  O83  1  0.03437861  0.83240157  0.43836903  1  0  -0.773599  0  2.079897  0  0  -0.729971  0  2.355254  0  0  -0.753752  0  2.340557  0  0  -0.439417  -0.712905  0  2.364553  0
O  O84  1  0.70723290  0.92648923  0.51219213  1  0  -0.663821  0  2.039843  0  0  -0.612548  0  2.289354  0  0  -0.637013  0  2.278885  0  0  -0.364751  -0.595325  0  2.295901  0
O  O85  1  0.29279507  0.42647564  0.48780857  1  0  -0.664077  0  2.040145  0  0  -0.612768  0  2.289637  0  0  -0.63726  0  2.27923  0  0  -0.364937  -0.595525  0  2.296199  0
O  O86  1  0.80490911  0.57358105  0.51218131  1  0  -0.664365  0  2.041774  0  0  -0.612798  0  2.290757  0  0  -0.637282  0  2.28016  0  0  -0.364979  -0.595581  0  2.297412  0
O  O87  1  0.19508700  0.07357092  0.48782196  1  0  -0.664369  0  2.041892  0  0  -0.612793  0  2.29103  0  0  -0.637269  0  2.280429  0  0  -0.365023  -0.595569  0  2.297681  0
O  O88  1  0.50886615  0.23577982  0.69319957  1  0  -0.74556  0  2.000814  0  0  -0.698892  0  2.252111  0  0  -0.722672  0  2.241344  0  0  -0.447099  -0.682005  0  2.258895  0
O  O89  1  0.49113305  0.73577214  0.30679857  1  0  -0.745581  0  2.000875  0  0  -0.698876  0  2.252148  0  0  -0.722656  0  2.241378  0  0  -0.447113  -0.682002  0  2.258928  0
O  O90  1  0.18514444  0.26369860  0.69322144  1  0  -0.745791  0  2.001685  0  0  -0.698897  0  2.25242  0  0  -0.722697  0  2.241702  0  0  -0.44639  -0.681982  0  2.259159  0
O  O91  1  0.81484905  0.76368876  0.30677648  1  0  -0.745722  0  2.001697  0  0  -0.698869  0  2.252558  0  0  -0.722675  0  2.241842  0  0  -0.446382  -0.681966  0  2.259293  0
O  O92  1  0.62018158  0.05545723  0.38992352  1  0  -0.667661  0  2.189309  0  0  -0.616602  0  2.441835  0  0  -0.633231  0  2.42804  0  0  -0.451739  -0.604339  0  2.450748  0
O  O93  1  0.37983830  0.55543854  0.61007603  1  0  -0.667746  0  2.189398  0  0  -0.616705  0  2.441963  0  0  -0.633332  0  2.428143  0  0  -0.45188  -0.60442  0  2.450888  0
O  O94  1  0.76987111  0.44456465  0.38994926  1  0  -0.668402  0  2.187739  0  0  -0.617256  0  2.440541  0  0  -0.633967  0  2.426853  0  0  -0.452076  -0.604937  0  2.449583  0
O  O95  1  0.23013011  0.94455717  0.61005195  1  0  -0.668408  0  2.187767  0  0  -0.617289  0  2.440552  0  0  -0.634003  0  2.426865  0  0  -0.452059  -0.604946  0  2.449599  0
