# generated using pymatgen
data_KH8C12N5O4
_symmetry_space_group_name_H-M   'P 1'
_cell_length_a   7.60055364
_cell_length_b   9.30812272
_cell_length_c   9.78454767
_cell_angle_alpha   82.04053024
_cell_angle_beta   81.21386341
_cell_angle_gamma   81.49151237
_symmetry_Int_Tables_number   1
_chemical_formula_structural   KH8C12N5O4
_chemical_formula_sum   'K2 H16 C24 N10 O8'
_cell_volume   671.80256667
_cell_formula_units_Z   2
loop_
 _symmetry_equiv_pos_site_id
 _symmetry_equiv_pos_as_xyz
  1  'x, y, z'
loop_
 _atom_site_type_symbol
 _atom_site_label
 _atom_site_symmetry_multiplicity
 _atom_site_fract_x
 _atom_site_fract_y
 _atom_site_fract_z
 _atom_site_occupancy
 _atom_site_hle17_bader_spin_density
 _atom_site_hle17_ddec_charge
 _atom_site_hle17_ddec_spin_density
 _atom_site_hle17_ddec_sum_bond_order
 _atom_site_hle17_magmom
 _atom_site_hse06_10hf_bader_spin_density
 _atom_site_hse06_10hf_ddec_charge
 _atom_site_hse06_10hf_ddec_spin_density
 _atom_site_hse06_10hf_ddec_sum_bond_order
 _atom_site_hse06_10hf_magmom
 _atom_site_hse06_bader_spin_density
 _atom_site_hse06_ddec_charge
 _atom_site_hse06_ddec_spin_density
 _atom_site_hse06_ddec_sum_bond_order
 _atom_site_hse06_magmom
 _atom_site_pbe_bader_spin_density
 _atom_site_pbe_cm5_charge
 _atom_site_pbe_ddec_charge
 _atom_site_pbe_ddec_spin_density
 _atom_site_pbe_ddec_sum_bond_order
 _atom_site_pbe_magmom
K  K0  1  0.27011620  0.57634651  0.96366457  1  0  0.877625  0  0.522091  0  0  0.791262  0  0.751981  0  0  0.81002  0  0.727024  0  0  0.860525  0.776606  0  0.770683  0
K  K1  1  0.72985531  0.42363124  0.03632904  1  0  0.87773  0  0.522043  0  0  0.791244  0  0.752006  0  0  0.810067  0  0.726934  0  0  0.860536  0.776584  0  0.77071  0
H  H2  1  0.18343949  0.07790891  0.09993072  1  0  0.111798  0  0.954679  0  0  0.115662  0  1.023174  0  0  0.119527  0  1.020958  0  0  0.11098  0.112697  0  1.024865  0
H  H3  1  0.81656827  0.92208592  0.90007258  1  0  0.111789  0  0.95469  0  0  0.115641  0  1.023188  0  0  0.119562  0  1.020912  0  0  0.110972  0.112684  0  1.024875  0
H  H4  1  0.11332206  0.90395726  0.95198017  1  0  0.099162  0  0.985963  0  0  0.104295  0  1.056362  0  0  0.107591  0  1.053417  0  0  0.109534  0.102922  0  1.056312  0
H  H5  1  0.88668602  0.09603540  0.04802233  1  0  0.099247  0  0.985827  0  0  0.104314  0  1.056326  0  0  0.107608  0  1.053384  0  0  0.109529  0.102942  0  1.056269  0
H  H6  1  0.49794346  0.06368334  0.61500008  1  0  0.123003  0  0.981337  0  0  0.126658  0  1.051005  0  0  0.130186  0  1.047467  0  0  0.11148  0.124721  0  1.051553  0
H  H7  1  0.50204752  0.93632479  0.38499663  1  0  0.122974  0  0.981336  0  0  0.126677  0  1.050959  0  0  0.130208  0  1.047417  0  0  0.111473  0.124739  0  1.051507  0
H  H8  1  0.57542492  0.23352227  0.76671256  1  0  0.112794  0  0.944811  0  0  0.120891  0  1.00843  0  0  0.125134  0  1.005672  0  0  0.112015  0.118715  0  1.008973  0
H  H9  1  0.42457041  0.76648365  0.23328488  1  0  0.112782  0  0.944878  0  0  0.120884  0  1.008492  0  0  0.125127  0  1.005735  0  0  0.112015  0.118707  0  1.009035  0
H  H10  1  0.39922100  0.54222063  0.38977854  1  0  0.106854  0  0.948102  0  0  0.116263  0  1.011694  0  0  0.119828  0  1.010363  0  0  0.110114  0.114079  0  1.012121  0
H  H11  1  0.60078602  0.45777864  0.61022024  1  0  0.106842  0  0.948162  0  0  0.116245  0  1.011759  0  0  0.119811  0  1.010428  0  0  0.11012  0.114063  0  1.012185  0
H  H12  1  0.23433299  0.54945523  0.62956110  1  0  0.116184  0  0.959344  0  0  0.117755  0  1.031443  0  0  0.122199  0  1.026595  0  0  0.113447  0.114229  0  1.035293  0
H  H13  1  0.76567924  0.45054506  0.37043996  1  0  0.116331  0  0.959227  0  0  0.117863  0  1.031384  0  0  0.122304  0  1.026538  0  0  0.113496  0.114333  0  1.035219  0
H  H14  1  0.99450322  0.16836998  0.58601333  1  0  0.117354  0  0.933053  0  0  0.124978  0  0.992459  0  0  0.128638  0  0.989195  0  0  0.112599  0.121701  0  0.99606  0
H  H15  1  0.00549501  0.83163476  0.41398797  1  0  0.117331  0  0.933061  0  0  0.124961  0  0.992452  0  0  0.12862  0  0.989188  0  0  0.112573  0.121683  0  0.996051  0
H  H16  1  0.16003565  0.16100800  0.34709693  1  0  0.113433  0  0.953098  0  0  0.116362  0  1.021472  0  0  0.120248  0  1.019409  0  0  0.108576  0.113574  0  1.02241  0
H  H17  1  0.83995918  0.83899245  0.65290122  1  0  0.113382  0  0.9532  0  0  0.116331  0  1.021534  0  0  0.120217  0  1.019475  0  0  0.108572  0.113545  0  1.022472  0
C  C18  1  0.38189100  0.16961365  0.94225556  1  0  0.232698  0  3.800825  0  0  0.232933  0  4.052572  0  0  0.244204  0  4.074184  0  0  0.106675  0.224544  0  4.04093  0
C  C19  1  0.61810703  0.83038347  0.05774463  1  0  0.232853  0  3.800428  0  0  0.233007  0  4.052307  0  0  0.244276  0  4.073928  0  0  0.1067  0.224617  0  4.040669  0
C  C20  1  0.25156398  0.07415506  0.99417283  1  0  -0.135081  0  3.692824  0  0  -0.155831  0  3.946736  0  0  -0.165221  0  3.968804  0  0  -0.083854  -0.149551  0  3.931055  0
C  C21  1  0.74843525  0.92584312  0.00582912  1  0  -0.135035  0  3.692644  0  0  -0.155814  0  3.946669  0  0  -0.165251  0  3.968713  0  0  -0.08386  -0.149545  0  3.931  0
C  C22  1  0.21272635  0.97742494  0.91190072  1  0  -0.085092  0  3.75674  0  0  -0.109398  0  4.015527  0  0  -0.105564  0  4.035311  0  0  -0.082053  -0.111723  0  4.001484  0
C  C23  1  0.78727268  0.02257437  0.08809908  1  0  -0.08487  0  3.757002  0  0  -0.109484  0  4.015619  0  0  -0.105653  0  4.03542  0  0  -0.082078  -0.111806  0  4.001574  0
C  C24  1  0.30033416  0.97533577  0.77494964  1  0  0.053331  0  3.736058  0  0  0.036376  0  3.997974  0  0  0.027901  0  4.023999  0  0  0.068342  0.038081  0  3.979873  0
C  C25  1  0.69966283  0.02466795  0.22504785  1  0  0.051811  0  3.736932  0  0  0.036353  0  3.998049  0  0  0.027881  0  4.024073  0  0  0.068349  0.03808  0  3.979957  0
C  C26  1  0.43010945  0.06816733  0.72075929  1  0  -0.077346  0  3.716627  0  0  -0.105131  0  3.980672  0  0  -0.101172  0  4.000011  0  0  -0.076819  -0.106196  0  3.967088  0
C  C27  1  0.56988703  0.93183969  0.27923685  1  0  -0.077027  0  3.716797  0  0  -0.105113  0  3.980599  0  0  -0.101157  0  3.999938  0  0  -0.076806  -0.106178  0  3.96701  0
C  C28  1  0.47102854  0.16343088  0.80475983  1  0  -0.12859  0  3.660987  0  0  -0.148288  0  3.914699  0  0  -0.157471  0  3.935793  0  0  -0.078937  -0.142089  0  3.899968  0
C  C29  1  0.52896714  0.83657283  0.19523885  1  0  -0.128561  0  3.660898  0  0  -0.148332  0  3.914758  0  0  -0.157516  0  3.935853  0  0  -0.078944  -0.142131  0  3.900024  0
C  C30  1  0.29250780  0.35067457  0.35225797  1  0  0.23674  0  3.781151  0  0  0.235804  0  4.039908  0  0  0.247165  0  4.061183  0  0  0.109132  0.227995  0  4.02541  0
C  C31  1  0.70749090  0.64932693  0.64774161  1  0  0.236637  0  3.781173  0  0  0.23576  0  4.039836  0  0  0.24712  0  4.061118  0  0  0.109066  0.227952  0  4.025341  0
C  C32  1  0.31348765  0.45893942  0.43475478  1  0  -0.130452  0  3.683535  0  0  -0.152963  0  3.93671  0  0  -0.162456  0  3.958694  0  0  -0.082894  -0.148261  0  3.922478  0
C  C33  1  0.68651937  0.54105985  0.56524401  1  0  -0.130404  0  3.683496  0  0  -0.152933  0  3.936668  0  0  -0.162423  0  3.958644  0  0  -0.08292  -0.148233  0  3.922433  0
C  C34  1  0.22325556  0.46268107  0.56838896  1  0  -0.080981  0  3.723974  0  0  -0.102003  0  3.980874  0  0  -0.09763  0  3.999677  0  0  -0.073804  -0.105193  0  3.968951  0
C  C35  1  0.77675418  0.53731814  0.43161255  1  0  -0.081093  0  3.723912  0  0  -0.102148  0  3.980805  0  0  -0.097775  0  3.999606  0  0  -0.073801  -0.105319  0  3.968872  0
C  C36  1  0.10930252  0.35642532  0.62211292  1  0  0.053956  0  3.741984  0  0  0.036498  0  3.991028  0  0  0.027038  0  4.018483  0  0  0.074782  0.042786  0  3.97549  0
C  C37  1  0.89070291  0.64357608  0.37788990  1  0  0.054003  0  3.742017  0  0  0.03663  0  3.990977  0  0  0.027171  0  4.018431  0  0  0.07476  0.042908  0  3.975452  0
C  C38  1  0.08607852  0.24747845  0.54249755  1  0  -0.072459  0  3.736499  0  0  -0.099006  0  4.002161  0  0  -0.095203  0  4.021604  0  0  -0.076645  -0.102746  0  3.9908  0
C  C39  1  0.91392567  0.75252192  0.45750146  1  0  -0.072431  0  3.736478  0  0  -0.098987  0  4.002099  0  0  -0.095183  0  4.021539  0  0  -0.076595  -0.102723  0  3.990741  0
C  C40  1  0.17774739  0.24374452  0.41007225  1  0  -0.121458  0  3.68062  0  0  -0.147326  0  3.943245  0  0  -0.156602  0  3.965231  0  0  -0.081626  -0.139419  0  3.926471  0
C  C41  1  0.82225095  0.75625917  0.58992609  1  0  -0.121437  0  3.680632  0  0  -0.1473  0  3.943194  0  0  -0.156578  0  3.965182  0  0  -0.081581  -0.139395  0  3.926422  0
N  N42  1  0.25765562  0.87346314  0.69139717  1  0  0.46757  0  3.949234  0  0  0.513463  0  4.224089  0  0  0.534547  0  4.235509  0  0  0.033533  0.512294  0  4.197116  0
N  N43  1  0.74234876  0.12653613  0.30860298  1  0  0.470821  0  3.948493  0  0  0.513555  0  4.224022  0  0  0.534637  0  4.235445  0  0  0.033531  0.512306  0  4.197164  0
N  N44  1  0.01336024  0.35912184  0.75875254  1  0  0.471147  0  3.952809  0  0  0.535251  0  4.193632  0  0  0.557311  0  4.204468  0  0  0.017213  0.520312  0  4.187701  0
N  N45  1  0.98664243  0.64087965  0.24124551  1  0  0.471179  0  3.952698  0  0  0.535167  0  4.193648  0  0  0.557229  0  4.20448  0  0  0.017159  0.520231  0  4.187719  0
N  N46  1  0.42677972  0.27152331  0.01809129  1  0  -0.401978  0  3.082836  0  0  -0.376317  0  3.385193  0  0  -0.395948  0  3.401043  0  0  -0.337825  -0.363098  0  3.376218  0
N  N47  1  0.57321681  0.72847492  0.98190896  1  0  -0.40205  0  3.082731  0  0  -0.376369  0  3.385078  0  0  -0.395997  0  3.400927  0  0  -0.33777  -0.36315  0  3.376108  0
N  N48  1  0.34685535  0.26034965  0.14691022  1  0  0.025998  0  3.179954  0  0  0.049781  0  3.479229  0  0  0.061816  0  3.490516  0  0  -0.088856  0.041091  0  3.472198  0
N  N49  1  0.65314390  0.73964851  0.85309275  1  0  0.026003  0  3.179883  0  0  0.049803  0  3.479109  0  0  0.061834  0  3.49041  0  0  -0.088839  0.041113  0  3.472085  0
N  N50  1  0.38205506  0.36047409  0.21712502  1  0  -0.378724  0  3.033404  0  0  -0.364907  0  3.344937  0  0  -0.383361  0  3.359659  0  0  -0.29252  -0.352096  0  3.335132  0
N  N51  1  0.61794451  0.63952190  0.78287715  1  0  -0.378695  0  3.03327  0  0  -0.364901  0  3.344795  0  0  -0.383357  0  3.359524  0  0  -0.292478  -0.352092  0  3.335003  0
O  O52  1  0.16308930  0.77606125  0.74994186  1  0  -0.442703  0  1.787133  0  0  -0.41973  0  2.004932  0  0  -0.432826  0  2.000111  0  0  -0.218585  -0.412028  0  2.001303  0
O  O53  1  0.83692126  0.22393251  0.25005918  1  0  -0.444335  0  1.78733  0  0  -0.419767  0  2.004969  0  0  -0.432869  0  2.000152  0  0  -0.218563  -0.412037  0  2.00137  0
O  O54  1  0.31366128  0.88359955  0.56420332  1  0  -0.373561  0  1.762429  0  0  -0.348916  0  1.958209  0  0  -0.359795  0  1.955307  0  0  -0.139268  -0.344787  0  1.952528  0
O  O55  1  0.68634295  0.11640079  0.43579774  1  0  -0.375244  0  1.762524  0  0  -0.348927  0  1.958091  0  0  -0.359822  0  1.955221  0  0  -0.139271  -0.344771  0  1.952442  0
O  O56  1  0.04502345  0.44813936  0.83535481  1  0  -0.469904  0  1.788827  0  0  -0.445919  0  1.996257  0  0  -0.459356  0  1.991631  0  0  -0.259462  -0.437337  0  2.001082  0
O  O57  1  0.95497124  0.55186215  0.16464528  1  0  -0.469933  0  1.788729  0  0  -0.445937  0  1.996241  0  0  -0.459372  0  1.99161  0  0  -0.259448  -0.437357  0  2.001064  0
O  O58  1  0.89758393  0.27377336  0.80067842  1  0  -0.420984  0  1.760962  0  0  -0.398487  0  1.95833  0  0  -0.410764  0  1.954739  0  0  -0.185883  -0.391817  0  1.960913  0
O  O59  1  0.10241871  0.72622817  0.19931759  1  0  -0.420937  0  1.76086  0  0  -0.39843  0  1.958295  0  0  -0.410702  0  1.954703  0  0  -0.185812  -0.391756  0  1.960864  0
