# generated using pymatgen
data_Cd3H76C54(N19O3)2
_symmetry_space_group_name_H-M   'P 1'
_cell_length_a   11.01024999
_cell_length_b   14.56883448
_cell_length_c   22.69370195
_cell_angle_alpha   90.00005406
_cell_angle_beta   89.99991722
_cell_angle_gamma   97.82588976
_symmetry_Int_Tables_number   1
_chemical_formula_structural   Cd3H76C54(N19O3)2
_chemical_formula_sum   'Cd6 H152 C108 N76 O12'
_cell_volume   3606.31404333
_cell_formula_units_Z   2
loop_
 _symmetry_equiv_pos_site_id
 _symmetry_equiv_pos_as_xyz
  1  'x, y, z'
loop_
 _atom_site_type_symbol
 _atom_site_label
 _atom_site_symmetry_multiplicity
 _atom_site_fract_x
 _atom_site_fract_y
 _atom_site_fract_z
 _atom_site_occupancy
 _atom_site_pbe_bader_charge
 _atom_site_pbe_bader_spin_density
 _atom_site_pbe_cm5_charge
 _atom_site_pbe_ddec_charge
 _atom_site_pbe_ddec_spin_density
 _atom_site_pbe_ddec_sum_bond_order
 _atom_site_pbe_magmom
Cd  Cd0  1  0.00000182  0.00000001  0.00000044  1  1.243966  0  0.820969  0.671501  0  2.539969  0
Cd  Cd1  1  0.00000020  0.49999742  0.49999930  1  1.243894  0  0.820929  0.671517  0  2.539918  0
Cd  Cd2  1  0.86055845  0.78039989  0.07239445  1  1.256934  0  0.802086  0.745864  0  2.363295  0
Cd  Cd3  1  0.13944370  0.71959937  0.57239597  1  1.256953  0  0.802063  0.745876  0  2.363249  0
Cd  Cd4  1  0.13944672  0.21960429  0.92760671  1  1.257022  0  0.802087  0.74588  0  2.36311  0
Cd  Cd5  1  0.86055643  0.28039647  0.42760608  1  1.256979  0  0.802072  0.7458  0  2.363285  0
H  H6  1  0.91703622  0.31477161  0.29194596  1  0.118404  0  0.112921  0.073674  0  1.071104  0
H  H7  1  0.08295978  0.18522755  0.79194618  1  0.118337  0  0.112929  0.073717  0  1.071183  0
H  H8  1  0.08296859  0.68523050  0.70805520  1  0.118398  0  0.11291  0.073664  0  1.071169  0
H  H9  1  0.91703706  0.81477035  0.20805587  1  0.118399  0  0.112915  0.073672  0  1.071151  0
H  H10  1  0.93472317  0.22865334  0.19741618  1  0.09941  0  0.113707  0.122105  0  1.007361  0
H  H11  1  0.06527591  0.27134087  0.69741514  1  0.099301  0  0.113781  0.12222  0  1.007352  0
H  H12  1  0.06528435  0.77134325  0.80258675  1  0.099424  0  0.113794  0.122207  0  1.00722  0
H  H13  1  0.93472296  0.72865288  0.30258559  1  0.09939  0  0.113741  0.122188  0  1.007253  0
H  H14  1  0.81426347  0.97539032  0.29313683  1  0.113398  0  0.111483  0.127049  0  1.037265  0
H  H15  1  0.18573636  0.52460437  0.79313423  1  0.113519  0  0.111455  0.126963  0  1.037259  0
H  H16  1  0.18573246  0.02460757  0.70686478  1  0.113396  0  0.111488  0.1271  0  1.037317  0
H  H17  1  0.81426412  0.47539355  0.20686165  1  0.113415  0  0.111503  0.127074  0  1.037344  0
H  H18  1  0.80209289  0.07207179  0.38265789  1  0.12027  0  0.114544  0.084394  0  1.043142  0
H  H19  1  0.19791082  0.42792615  0.88265684  1  0.120348  0  0.11455  0.084424  0  1.043158  0
H  H20  1  0.19790737  0.92793028  0.61734284  1  0.120374  0  0.114514  0.084339  0  1.043075  0
H  H21  1  0.80209582  0.57207596  0.11734036  1  0.12014  0  0.114582  0.084521  0  1.043161  0
H  H22  1  0.68960858  0.92860086  0.05094808  1  0.109878  0  0.113823  0.075462  0  1.037655  0
H  H23  1  0.31039213  0.57139490  0.55096349  1  0.109785  0  0.113774  0.075443  0  1.037614  0
H  H24  1  0.31039237  0.07139983  0.94904340  1  0.109813  0  0.113779  0.075433  0  1.037622  0
H  H25  1  0.68960946  0.42859887  0.44904958  1  0.109935  0  0.11381  0.075445  0  1.037557  0
H  H26  1  0.47196664  0.95949153  0.04936799  1  0.11714  0  0.114928  0.124487  0  1.00565  0
H  H27  1  0.52803041  0.54049867  0.54938323  1  0.117108  0  0.114928  0.124495  0  1.005668  0
H  H28  1  0.52803328  0.04050846  0.95062260  1  0.117264  0  0.114904  0.124457  0  1.005778  0
H  H29  1  0.47196693  0.45948608  0.45063292  1  0.117205  0  0.114881  0.124363  0  1.005783  0
H  H30  1  0.36826191  0.68094377  0.11518797  1  0.134697  0  0.11331  0.12867  0  1.022577  0
H  H31  1  0.63174194  0.81905555  0.61518523  1  0.134672  0  0.113275  0.128617  0  1.022576  0
H  H32  1  0.63174768  0.31905974  0.88481232  1  0.134903  0  0.113297  0.128642  0  1.022435  0
H  H33  1  0.36825977  0.18093892  0.38481285  1  0.134938  0  0.113329  0.12867  0  1.022525  0
H  H34  1  0.58821434  0.66138828  0.11343145  1  0.104142  0  0.118498  0.087069  0  0.989428  0
H  H35  1  0.41179306  0.83861591  0.61342932  1  0.104309  0  0.118513  0.087067  0  0.989426  0
H  H36  1  0.41179651  0.33861732  0.88656972  1  0.104242  0  0.118522  0.087063  0  0.989426  0
H  H37  1  0.58821187  0.16138688  0.38656656  1  0.10407  0  0.11852  0.087028  0  0.989474  0
H  H38  1  0.76872645  0.45569338  0.88978153  1  0.083346  0  0.100384  0.08111  0  1.028308  0
H  H39  1  0.23126008  0.04430515  0.38977812  1  0.083411  0  0.100368  0.081071  0  1.028294  0
H  H40  1  0.23127203  0.54431422  0.11022184  1  0.083227  0  0.100324  0.080971  0  1.028279  0
H  H41  1  0.76872757  0.95569753  0.61022041  1  0.083308  0  0.100392  0.081075  0  1.028245  0
H  H42  1  0.86713046  0.38516733  0.92501019  1  0.087589  0  0.100241  0.084199  0  1.036307  0
H  H43  1  0.13285290  0.11482915  0.42500777  1  0.087328  0  0.100225  0.084185  0  1.036266  0
H  H44  1  0.13286731  0.61483611  0.07499010  1  0.088034  0  0.100213  0.084115  0  1.036362  0
H  H45  1  0.86712972  0.88516519  0.57499516  1  0.088091  0  0.100215  0.084138  0  1.036297  0
H  H46  1  0.04190090  0.50495249  0.91845363  1  0.078543  0  0.101804  0.077403  0  1.00787  0
H  H47  1  0.95809037  0.99503676  0.41845525  1  0.078923  0  0.101752  0.077273  0  1.008008  0
H  H48  1  0.95810074  0.49505236  0.08154269  1  0.078455  0  0.101818  0.077381  0  1.007883  0
H  H49  1  0.04190187  0.00495003  0.58154856  1  0.078486  0  0.101815  0.077407  0  1.007902  0
H  H50  1  0.95867095  0.54196459  0.85735002  1  0.062084  0  0.105727  0.087903  0  0.977978  0
H  H51  1  0.04131640  0.95802733  0.35734918  1  0.06204  0  0.105666  0.087836  0  0.977984  0
H  H52  1  0.04131966  0.45803950  0.14264806  1  0.062131  0  0.105676  0.087876  0  0.978145  0
H  H53  1  0.95867246  0.04196636  0.64264978  1  0.062072  0  0.105748  0.087932  0  0.978044  0
H  H54  1  0.69361218  0.37342682  0.00466151  1  0.041983  0  0.106086  0.119508  0  0.999516  0
H  H55  1  0.30637688  0.12657469  0.50465933  1  0.04195  0  0.106097  0.119546  0  0.99948  0
H  H56  1  0.30638222  0.62658352  0.99534186  1  0.041735  0  0.106094  0.119441  0  0.999459  0
H  H57  1  0.69361834  0.87341905  0.49534184  1  0.041776  0  0.106105  0.119502  0  0.99947  0
H  H58  1  0.61629332  0.47156383  0.99159133  1  0.040611  0  0.092705  0.094489  0  1.011017  0
H  H59  1  0.38370252  0.02844320  0.49158119  1  0.040267  0  0.092718  0.09448  0  1.011015  0
H  H60  1  0.38370950  0.52844795  0.00841072  1  0.040595  0  0.092642  0.094301  0  1.011066  0
H  H61  1  0.61629842  0.97155750  0.50841292  1  0.040398  0  0.09266  0.094365  0  1.011027  0
H  H62  1  0.70696566  0.46431060  0.05664115  1  0.094925  0  0.106789  0.127822  0  1.014102  0
H  H63  1  0.29303755  0.03568415  0.55663496  1  0.095109  0  0.106833  0.127922  0  1.014046  0
H  H64  1  0.29303408  0.53569908  0.94336046  1  0.094813  0  0.106817  0.127841  0  1.014044  0
H  H65  1  0.70696856  0.96430412  0.44336092  1  0.09505  0  0.106769  0.127846  0  1.014043  0
H  H66  1  0.08392790  0.68850209  0.90189313  1  0.086788  0  0.107072  0.127131  0  1.010609  0
H  H67  1  0.91607556  0.81148376  0.40189335  1  0.086424  0  0.107072  0.127083  0  1.010476  0
H  H68  1  0.91608505  0.31148899  0.09810804  1  0.086607  0  0.107094  0.127113  0  1.010459  0
H  H69  1  0.08393246  0.18849968  0.59810341  1  0.08684  0  0.107083  0.127131  0  1.010554  0
H  H70  1  0.08008651  0.69227089  0.98010954  1  0.038786  0  0.095078  0.102862  0  1.015764  0
H  H71  1  0.91991078  0.80772817  0.48010976  1  0.038684  0  0.095103  0.102852  0  1.015757  0
H  H72  1  0.91991322  0.30773879  0.01989074  1  0.038923  0  0.095126  0.102871  0  1.015789  0
H  H73  1  0.08008867  0.19226905  0.51988788  1  0.038718  0  0.095114  0.102809  0  1.015772  0
H  H74  1  0.98088398  0.75457538  0.93830513  1  0.068055  0  0.096781  0.110945  0  1.052512  0
H  H75  1  0.01911715  0.74541881  0.43831300  1  0.068079  0  0.096747  0.110842  0  1.052514  0
H  H76  1  0.01912814  0.24543231  0.06168282  1  0.068024  0  0.096788  0.110911  0  1.052543  0
H  H77  1  0.98088749  0.25457152  0.56169301  1  0.068241  0  0.096793  0.110935  0  1.052469  0
H  H78  1  0.47901934  0.61732820  0.34072273  1  0.050542  0  0.100774  0.080688  0  1.001626  0
H  H79  1  0.52098635  0.88265897  0.84072407  1  0.049987  0  0.100732  0.08063  0  1.001541  0
H  H80  1  0.52097876  0.38267178  0.65928020  1  0.050577  0  0.100728  0.080611  0  1.001504  0
H  H81  1  0.47900695  0.11733406  0.15927445  1  0.050263  0  0.100708  0.080557  0  1.001515  0
H  H82  1  0.60264189  0.56447192  0.31033803  1  0.063921  0  0.102315  0.089221  0  0.974692  0
H  H83  1  0.39736287  0.93552005  0.81034037  1  0.064062  0  0.102327  0.089341  0  0.974644  0
H  H84  1  0.39735586  0.43552598  0.68966490  1  0.063929  0  0.102286  0.089208  0  0.974649  0
H  H85  1  0.60263338  0.06447438  0.18966035  1  0.063975  0  0.102303  0.08926  0  0.974624  0
H  H86  1  0.62460287  0.66727619  0.22707707  1  0.045964  0  0.091778  0.06561  0  1.006706  0
H  H87  1  0.37539382  0.83271493  0.72707980  1  0.04655  0  0.091801  0.065629  0  1.006682  0
H  H88  1  0.37539943  0.33272174  0.77292674  1  0.046344  0  0.091782  0.065599  0  1.006708  0
H  H89  1  0.62459607  0.16727946  0.27292048  1  0.046092  0  0.091813  0.06569  0  1.006781  0
H  H90  1  0.46687645  0.67237068  0.24051169  1  0.057102  0  0.102346  0.091718  0  1.023333  0
H  H91  1  0.53311915  0.82761422  0.74051255  1  0.057234  0  0.102387  0.091767  0  1.02328  0
H  H92  1  0.53312664  0.32762656  0.75948948  1  0.057077  0  0.102342  0.091702  0  1.023315  0
H  H93  1  0.46686980  0.17237463  0.25948862  1  0.057061  0  0.102391  0.091736  0  1.023232  0
H  H94  1  0.71965500  0.61791948  0.42128244  1  0.041662  0  0.092558  0.105591  0  1.027121  0
H  H95  1  0.28034937  0.88207747  0.92128704  1  0.041792  0  0.092562  0.105621  0  1.027039  0
H  H96  1  0.28034934  0.38207985  0.57871740  1  0.041688  0  0.092586  0.105632  0  1.027051  0
H  H97  1  0.71965852  0.11792672  0.07871457  1  0.041851  0  0.092509  0.105562  0  1.026848  0
H  H98  1  0.57918055  0.66291487  0.43654930  1  0.047087  0  0.090489  0.096707  0  1.014864  0
H  H99  1  0.42082569  0.83707727  0.93655112  1  0.047288  0  0.090465  0.096694  0  1.014917  0
H  H100  1  0.42082492  0.33708031  0.56345275  1  0.046952  0  0.090477  0.096753  0  1.01489  0
H  H101  1  0.57917866  0.16292206  0.06344740  1  0.047345  0  0.090466  0.09672  0  1.014908  0
H  H102  1  0.72170998  0.73853312  0.43413759  1  0.050778  0  0.103584  0.113941  0  1.029607  0
H  H103  1  0.27829504  0.76146247  0.93414255  1  0.050806  0  0.103567  0.113894  0  1.029684  0
H  H104  1  0.27829607  0.26146553  0.56586358  1  0.050671  0  0.103596  0.113958  0  1.029615  0
H  H105  1  0.72170491  0.23854306  0.06586170  1  0.050774  0  0.103596  0.11393  0  1.029672  0
H  H106  1  0.49985855  0.85612341  0.22009461  1  0.039575  0  0.095379  0.102709  0  1.013716  0
H  H107  1  0.50012473  0.64386345  0.72009583  1  0.039811  0  0.095369  0.102674  0  1.013648  0
H  H108  1  0.50012917  0.14386889  0.77991096  1  0.039666  0  0.095316  0.102594  0  1.013736  0
H  H109  1  0.49987085  0.35613236  0.27991195  1  0.039646  0  0.095358  0.102678  0  1.013753  0
H  H110  1  0.66059638  0.85907744  0.20588885  1  0.067288  0  0.088471  0.096991  0  1.045682  0
H  H111  1  0.33938819  0.64091149  0.70589371  1  0.067223  0  0.08843  0.096931  0  1.045785  0
H  H112  1  0.33938978  0.14092177  0.79411231  1  0.067165  0  0.088452  0.09692  0  1.045779  0
H  H113  1  0.66060666  0.35907462  0.29411054  1  0.067305  0  0.088482  0.096984  0  1.045829  0
H  H114  1  0.60993083  0.92212515  0.26641229  1  0.079644  0  0.10601  0.120758  0  1.004248  0
H  H115  1  0.39005827  0.57787012  0.76641531  1  0.079631  0  0.106081  0.120855  0  1.004239  0
H  H116  1  0.39005874  0.07787269  0.73359020  1  0.079629  0  0.106029  0.120799  0  1.004298  0
H  H117  1  0.60993980  0.42212433  0.23359247  1  0.079598  0  0.105963  0.120707  0  1.004463  0
H  H118  1  0.20275544  0.76097379  0.33419243  1  0.082956  0  0.106805  0.096416  0  0.97847  0
H  H119  1  0.79725948  0.73904111  0.83418952  1  0.083035  0  0.106814  0.096464  0  0.978345  0
H  H120  1  0.79725437  0.23902557  0.66580962  1  0.082928  0  0.10677  0.096417  0  0.978447  0
H  H121  1  0.20273587  0.26098030  0.16579887  1  0.08271  0  0.106779  0.096402  0  0.978429  0
H  H122  1  0.33698921  0.76831926  0.28972542  1  0.021659  0  0.100845  0.077805  0  0.999156  0
H  H123  1  0.66301911  0.73169347  0.78972921  1  0.021249  0  0.100864  0.077768  0  0.99927  0
H  H124  1  0.66302027  0.23168357  0.71027751  1  0.021485  0  0.10089  0.077888  0  0.999095  0
H  H125  1  0.33698144  0.26832106  0.21025433  1  0.021491  0  0.100918  0.077886  0  0.999345  0
H  H126  1  0.19544695  0.80687492  0.21399169  1  0.074179  0  0.103636  0.091988  0  0.986046  0
H  H127  1  0.80455820  0.69314461  0.71398876  1  0.073603  0  0.10367  0.092036  0  0.986006  0
H  H128  1  0.80456309  0.19312583  0.78600992  1  0.073963  0  0.10362  0.092047  0  0.986  0
H  H129  1  0.19544825  0.30686719  0.28600140  1  0.074011  0  0.103659  0.092025  0  0.986039  0
H  H130  1  0.10165722  0.85496758  0.26685046  1  0.028554  0  0.093736  0.062137  0  1.001118  0
H  H131  1  0.89834720  0.64504856  0.76684390  1  0.028638  0  0.093762  0.062133  0  1.001218  0
H  H132  1  0.89834437  0.14502620  0.73315159  1  0.028654  0  0.093719  0.062097  0  1.001245  0
H  H133  1  0.10165482  0.35496391  0.23314801  1  0.028514  0  0.093738  0.062153  0  1.001196  0
H  H134  1  0.42629288  0.95886979  0.40140665  1  0.056808  0  0.103698  0.112262  0  1.01733  0
H  H135  1  0.57374056  0.54113218  0.90140247  1  0.056783  0  0.103697  0.112268  0  1.017446  0
H  H136  1  0.57371739  0.04113234  0.59859716  1  0.056883  0  0.103737  0.112351  0  1.017333  0
H  H137  1  0.42625016  0.45889405  0.09858945  1  0.0573  0  0.103643  0.112251  0  1.017281  0
H  H138  1  0.47601127  0.85340820  0.37766829  1  0.081625  0  0.098195  0.112228  0  1.018173  0
H  H139  1  0.52400959  0.64658882  0.87766994  1  0.081677  0  0.098174  0.112235  0  1.017943  0
H  H140  1  0.52399557  0.14658977  0.62233287  1  0.081527  0  0.09823  0.112292  0  1.018112  0
H  H141  1  0.47598442  0.35343536  0.12232109  1  0.082229  0  0.098168  0.112326  0  1.017845  0
H  H142  1  0.34408161  0.84942209  0.42382652  1  0.04721  0  0.097957  0.111732  0  1.010731  0
H  H143  1  0.65593938  0.65058190  0.92382675  1  0.050076  0  0.097909  0.111678  0  1.010696  0
H  H144  1  0.65592558  0.15057795  0.57617729  1  0.047318  0  0.097965  0.111778  0  1.010702  0
H  H145  1  0.34405075  0.34944087  0.07616560  1  0.050111  0  0.097997  0.111798  0  1.010586  0
H  H146  1  0.22226910  0.98362101  0.16326048  1  0.073936  0  0.098522  0.115544  0  1.003165  0
H  H147  1  0.77772402  0.51639630  0.66325173  1  0.073643  0  0.09852  0.115457  0  1.003316  0
H  H148  1  0.77772704  0.01637273  0.83674333  1  0.073845  0  0.098517  0.115551  0  1.003259  0
H  H149  1  0.22227886  0.48360510  0.33674371  1  0.073771  0  0.098483  0.115421  0  1.003389  0
H  H150  1  0.28292405  0.07272831  0.21288894  1  0.117732  0  0.107489  0.12033  0  1.017934  0
H  H151  1  0.71707928  0.42728602  0.71288135  1  0.118066  0  0.107441  0.12026  0  1.017878  0
H  H152  1  0.71707279  0.92726959  0.78711223  1  0.117651  0  0.107464  0.120296  0  1.01793  0
H  H153  1  0.28291784  0.57272434  0.28712025  1  0.117952  0  0.107467  0.120272  0  1.017864  0
H  H154  1  0.12845123  0.01794360  0.22141690  1  0.016623  0  0.087585  0.092404  0  1.012599  0
H  H155  1  0.87155164  0.48207350  0.72140306  1  0.017264  0  0.087653  0.092422  0  1.012701  0
H  H156  1  0.87154549  0.98205360  0.77858603  1  0.016643  0  0.087567  0.092368  0  1.01261  0
H  H157  1  0.12844569  0.51793270  0.27859722  1  0.017119  0  0.087669  0.092444  0  1.012727  0
C  C158  1  0.89782441  0.23946316  0.29025385  1  0.49357  0  0.041683  0.089868  0  3.955246  0
C  C159  1  0.10216806  0.26053112  0.79025409  1  0.493657  0  0.041618  0.089874  0  3.955448  0
C  C160  1  0.10218050  0.76053409  0.70974688  1  0.49349  0  0.041747  0.089951  0  3.955543  0
C  C161  1  0.89782697  0.73946676  0.20974619  1  0.493703  0  0.041663  0.089902  0  3.955488  0
C  C162  1  0.90679551  0.19175921  0.23796487  1  -0.005219  0  -0.076452  -0.158592  0  3.935577  0
C  C163  1  0.09320164  0.30823504  0.73796427  1  -0.005166  0  -0.076529  -0.158878  0  3.935707  0
C  C164  1  0.09320963  0.80823943  0.76203541  1  -0.004991  0  -0.076545  -0.158825  0  3.935705  0
C  C165  1  0.90679406  0.69176147  0.26203337  1  -0.005196  0  -0.076494  -0.158768  0  3.935697  0
C  C166  1  0.87855104  0.09496958  0.23765155  1  -0.055162  0  0.019629  0.079034  0  4.016566  0
C  C167  1  0.12144773  0.40502884  0.73765143  1  -0.05516  0  0.019613  0.079095  0  4.016619  0
C  C168  1  0.12145366  0.90503183  0.76234961  1  -0.055114  0  0.019615  0.079155  0  4.01656  0
C  C169  1  0.87855161  0.59496769  0.26234754  1  -0.055092  0  0.019647  0.079167  0  4.016486  0
C  C170  1  0.83952932  0.05023789  0.29043184  1  0.015867  0  -0.079698  -0.170451  0  3.930617  0
C  C171  1  0.16046939  0.44975574  0.79043083  1  0.015756  0  -0.079625  -0.170254  0  3.930977  0
C  C172  1  0.16047265  0.94976350  0.70957065  1  0.015717  0  -0.079667  -0.170573  0  3.930984  0
C  C173  1  0.83952936  0.55023732  0.20956593  1  0.015732  0  -0.079737  -0.170425  0  3.930696  0
C  C174  1  0.83195734  0.10349099  0.34062992  1  0.446911  0  0.042929  0.089578  0  3.955041  0
C  C175  1  0.16803976  0.39650477  0.84062800  1  0.447026  0  0.042817  0.089331  0  3.955635  0
C  C176  1  0.16804348  0.89650901  0.65937345  1  0.446964  0  0.042948  0.089677  0  3.955148  0
C  C177  1  0.83195992  0.60349384  0.15936920  1  0.447184  0  0.042829  0.089292  0  3.955326  0
C  C178  1  0.88893011  0.04303353  0.18371939  1  0.934265  0  0.205655  0.201581  0  4.098673  0
C  C179  1  0.11106707  0.45695996  0.68371930  1  0.933543  0  0.20567  0.201675  0  4.098561  0
C  C180  1  0.11106957  0.95696508  0.81628178  1  0.934273  0  0.205685  0.201653  0  4.098653  0
C  C181  1  0.88893156  0.54303241  0.31627922  1  0.934269  0  0.205627  0.201426  0  4.098838  0
C  C182  1  0.61551986  0.87563376  0.06486384  1  0.509121  0  0.0423  0.094451  0  3.975033  0
C  C183  1  0.38448104  0.62436341  0.56487306  1  0.509639  0  0.042347  0.094551  0  3.975027  0
C  C184  1  0.38448519  0.12436973  0.93512851  1  0.509172  0  0.042308  0.094357  0  3.975066  0
C  C185  1  0.61551941  0.37562898  0.43513559  1  0.509209  0  0.042312  0.094434  0  3.974905  0
C  C186  1  0.49487151  0.89266913  0.06379840  1  -0.04505  0  -0.078289  -0.159421  0  3.922554  0
C  C187  1  0.50512779  0.60732387  0.56380796  1  -0.045187  0  -0.078212  -0.159354  0  3.922584  0
C  C188  1  0.50513340  0.10732812  0.93619528  1  -0.045045  0  -0.078263  -0.159312  0  3.922714  0
C  C189  1  0.49487049  0.39266643  0.43620246  1  -0.045048  0  -0.078248  -0.159266  0  3.922478  0
C  C190  1  0.40155725  0.82177960  0.08024791  1  -0.044467  0  0.022194  0.084609  0  3.991722  0
C  C191  1  0.59844737  0.67821830  0.58025040  1  -0.044314  0  0.022183  0.084485  0  3.992016  0
C  C192  1  0.59844801  0.17821973  0.91974973  1  -0.044287  0  0.022225  0.084532  0  3.991957  0
C  C193  1  0.40155493  0.32177963  0.41975209  1  -0.044431  0  0.022157  0.084554  0  3.991619  0
C  C194  1  0.43566212  0.73767026  0.10000622  1  -0.060097  0  -0.078775  -0.16708  0  3.911606  0
C  C195  1  0.56434643  0.76232978  0.60000569  1  -0.059788  0  -0.078733  -0.16699  0  3.911555  0
C  C196  1  0.56434621  0.26233118  0.89999231  1  -0.06015  0  -0.078706  -0.167016  0  3.9114  0
C  C197  1  0.43566267  0.23766543  0.39999371  1  -0.060302  0  -0.078688  -0.16701  0  3.911222  0
C  C198  1  0.55921800  0.72665641  0.09936238  1  0.492675  0  0.051833  0.104742  0  3.951007  0
C  C199  1  0.44078636  0.77334567  0.59936239  1  0.492434  0  0.05177  0.104754  0  3.9509  0
C  C200  1  0.44078843  0.27334985  0.90063658  1  0.492329  0  0.051678  0.10467  0  3.950983  0
C  C201  1  0.55921934  0.22665090  0.40063745  1  0.483118  0  0.051762  0.104827  0  3.950995  0
C  C202  1  0.27430579  0.83665590  0.07285251  1  0.941595  0  0.203419  0.203427  0  4.077009  0
C  C203  1  0.72569976  0.66334200  0.57285314  1  0.941429  0  0.20329  0.203307  0  4.077154  0
C  C204  1  0.72569947  0.16334344  0.92714645  1  0.941505  0  0.203328  0.203315  0  4.077024  0
C  C205  1  0.27429992  0.33665661  0.42714714  1  0.941745  0  0.203287  0.203166  0  4.077165  0
C  C206  1  0.85356980  0.58326325  0.98388517  1  1.780722  0  0.327374  0.505691  0  4.203602  0
C  C207  1  0.14642918  0.91673514  0.48388248  1  1.780633  0  0.327305  0.505588  0  4.203781  0
C  C208  1  0.14643698  0.41674510  0.01611423  1  1.78072  0  0.327283  0.505535  0  4.204046  0
C  C209  1  0.85357127  0.08325725  0.51611296  1  1.781035  0  0.327274  0.505374  0  4.203933  0
C  C210  1  0.84437769  0.45597206  0.92163968  1  0.248703  0  -0.061358  -0.085837  0  3.881735  0
C  C211  1  0.15560840  0.04402443  0.42163808  1  0.249086  0  -0.061285  -0.085719  0  3.881701  0
C  C212  1  0.15561712  0.54402998  0.07835973  1  0.248541  0  -0.06114  -0.085437  0  3.88164  0
C  C213  1  0.84438104  0.95597272  0.57836176  1  0.248223  0  -0.061227  -0.085622  0  3.881744  0
C  C214  1  0.95433148  0.52722694  0.90482662  1  0.274515  0  -0.05465  -0.066383  0  3.892546  0
C  C215  1  0.04565962  0.97276645  0.40482668  1  0.27404  0  -0.054473  -0.066127  0  3.892416  0
C  C216  1  0.04566494  0.47277926  0.09517366  1  0.274447  0  -0.054583  -0.06623  0  3.892372  0
C  C217  1  0.95433720  0.02722591  0.59517405  1  0.274435  0  -0.054647  -0.066408  0  3.892611  0
C  C218  1  0.70062544  0.44883009  0.00944303  1  0.288618  0  -0.131363  -0.246515  0  3.939621  0
C  C219  1  0.29936986  0.05117078  0.50943817  1  0.288993  0  -0.131416  -0.246611  0  3.939723  0
C  C220  1  0.29937031  0.55117749  0.99056034  1  0.28913  0  -0.131322  -0.246262  0  3.939521  0
C  C221  1  0.70063276  0.94882370  0.49056080  1  0.289158  0  -0.131308  -0.246443  0  3.939644  0
C  C222  1  0.02333036  0.69077058  0.94004162  1  0.287852  0  -0.140965  -0.258167  0  3.919417  0
C  C223  1  0.97666381  0.80922011  0.44004488  1  0.288084  0  -0.140979  -0.258031  0  3.919131  0
C  C224  1  0.97666636  0.30922663  0.05995382  1  0.287898  0  -0.141069  -0.25802  0  3.919207  0
C  C225  1  0.02334004  0.19077091  0.55995540  1  0.287597  0  -0.141037  -0.258091  0  3.919142  0
C  C226  1  0.65844070  0.78395590  0.33109626  1  1.754906  0  0.313249  0.491085  0  4.246442  0
C  C227  1  0.34155242  0.71603740  0.83110115  1  1.756202  0  0.313318  0.490996  0  4.24683  0
C  C228  1  0.34155887  0.21604201  0.66890711  1  1.75486  0  0.313277  0.49104  0  4.246561  0
C  C229  1  0.65843360  0.28395558  0.16890133  1  1.755484  0  0.313317  0.491078  0  4.246939  0
C  C230  1  0.56804130  0.63082712  0.31768636  1  0.284396  0  -0.055203  -0.069682  0  3.890119  0
C  C231  1  0.43195500  0.86915788  0.81768687  1  0.285065  0  -0.055227  -0.069927  0  3.890406  0
C  C232  1  0.43195645  0.36917078  0.68231613  1  0.284441  0  -0.055127  -0.069562  0  3.889958  0
C  C233  1  0.56804240  0.13083794  0.18231474  1  0.285038  0  -0.055124  -0.06966  0  3.890053  0
C  C234  1  0.55834601  0.68515245  0.26035549  1  0.313519  0  -0.059226  -0.080766  0  3.919388  0
C  C235  1  0.44164774  0.81483800  0.76035905  1  0.312496  0  -0.059242  -0.080732  0  3.919668  0
C  C236  1  0.44165491  0.31484270  0.73964523  1  0.313271  0  -0.059188  -0.08082  0  3.919596  0
C  C237  1  0.55834235  0.18515224  0.23964299  1  0.313088  0  -0.059285  -0.080903  0  3.919745  0
C  C238  1  0.66915007  0.67692671  0.41438805  1  0.327312  0  -0.14168  -0.248928  0  3.95021  0
C  C239  1  0.33085283  0.82306677  0.91439082  1  0.326477  0  -0.141619  -0.249063  0  3.95025  0
C  C240  1  0.33085507  0.32307193  0.58561267  1  0.327586  0  -0.141712  -0.249108  0  3.950139  0
C  C241  1  0.66914767  0.17693669  0.08561299  1  0.326535  0  -0.141565  -0.249094  0  3.950205  0
C  C242  1  0.59063993  0.85809851  0.24066549  1  0.279542  0  -0.139719  -0.248753  0  3.949368  0
C  C243  1  0.40934602  0.64188840  0.74066589  1  0.279225  0  -0.139743  -0.248681  0  3.949513  0
C  C244  1  0.40935145  0.14189935  0.75933480  1  0.279576  0  -0.139657  -0.248647  0  3.949548  0
C  C245  1  0.59064775  0.35810740  0.25933969  1  0.279304  0  -0.139705  -0.248663  0  3.949692  0
C  C246  1  0.32614492  0.96655305  0.30025527  1  1.7657  0  0.316549  0.491938  0  4.236879  0
C  C247  1  0.67386942  0.53346319  0.80024925  1  1.766018  0  0.316577  0.492023  0  4.236594  0
C  C248  1  0.67384546  0.03344965  0.69975162  1  1.766155  0  0.31653  0.491978  0  4.236837  0
C  C249  1  0.32612990  0.46655479  0.19974442  1  1.765311  0  0.316793  0.492259  0  4.236229  0
C  C250  1  0.26402733  0.80717621  0.30565278  1  0.305391  0  -0.051779  -0.072846  0  3.900786  0
C  C251  1  0.73598743  0.69283727  0.80565298  1  0.305718  0  -0.051888  -0.07288  0  3.901042  0
C  C252  1  0.73597919  0.19282521  0.69435059  1  0.305443  0  -0.051807  -0.072891  0  3.90087  0
C  C253  1  0.26401289  0.30717587  0.19433849  1  0.305786  0  -0.051907  -0.072938  0  3.900901  0
C  C254  1  0.19738462  0.84799445  0.25463470  1  0.299021  0  -0.055342  -0.074481  0  3.923493  0
C  C255  1  0.80262462  0.65202308  0.75462821  1  0.299752  0  -0.055251  -0.074454  0  3.923478  0
C  C256  1  0.80262313  0.15200352  0.74536823  1  0.298991  0  -0.055281  -0.074482  0  3.923707  0
C  C257  1  0.19737934  0.34799008  0.24536238  1  0.299182  0  -0.055351  -0.074578  0  3.923785  0
C  C258  1  0.39501314  0.88733870  0.38777290  1  0.283757  0  -0.137115  -0.24752  0  3.935163  0
C  C259  1  0.60501171  0.61266596  0.88777270  1  0.2805  0  -0.137001  -0.247414  0  3.934774  0
C  C260  1  0.60499042  0.11266132  0.61222871  1  0.283785  0  -0.137206  -0.247706  0  3.935053  0
C  C261  1  0.39498365  0.38735545  0.11221833  1  0.279397  0  -0.137072  -0.247619  0  3.93458  0
C  C262  1  0.22258781  0.00674045  0.20929808  1  0.249243  0  -0.13683  -0.23901  0  3.94305  0
C  C263  1  0.77741260  0.49327800  0.70928961  1  0.248651  0  -0.136835  -0.238925  0  3.943367  0
C  C264  1  0.77740891  0.99325675  0.79070529  1  0.24933  0  -0.136795  -0.238974  0  3.943171  0
C  C265  1  0.22258496  0.50672959  0.29070848  1  0.248761  0  -0.136812  -0.238849  0  3.943287  0
N  N266  1  0.86171987  0.19630810  0.34112303  1  -1.249934  0  -0.337485  -0.236742  0  3.514602  0
N  N267  1  0.13827565  0.30368904  0.84112151  1  -1.250182  0  -0.337392  -0.236597  0  3.514645  0
N  N268  1  0.13828345  0.80369054  0.65887858  1  -1.250085  0  -0.33753  -0.236764  0  3.514647  0
N  N269  1  0.86172178  0.69631232  0.15887745  1  -1.250159  0  -0.337404  -0.236632  0  3.514579  0
N  N270  1  0.92663070  0.08145603  0.13152032  1  -0.622225  0  -0.205409  -0.237809  0  3.177346  0
N  N271  1  0.07336642  0.41854154  0.63151936  1  -0.621585  0  -0.205506  -0.238004  0  3.177492  0
N  N272  1  0.07336934  0.91854466  0.86848084  1  -0.62222  0  -0.205422  -0.237887  0  3.177464  0
N  N273  1  0.92663133  0.58145636  0.36847784  1  -0.62173  0  -0.205414  -0.237782  0  3.177289  0
N  N274  1  0.92223185  0.00982456  0.09516881  1  -0.203837  0  -0.120066  -0.058021  0  3.497853  0
N  N275  1  0.07776354  0.49017295  0.59516876  1  -0.203859  0  -0.119988  -0.057946  0  3.497734  0
N  N276  1  0.07776841  0.99017751  0.90483148  1  -0.204403  0  -0.12011  -0.05807  0  3.497925  0
N  N277  1  0.92223101  0.50982216  0.40482844  1  -0.204575  0  -0.1201  -0.058123  0  3.497805  0
N  N278  1  0.88444900  0.93106209  0.12383211  1  -0.183899  0  -0.115321  -0.085975  0  3.451355  0
N  N279  1  0.11554834  0.56893651  0.62383267  1  -0.183883  0  -0.11536  -0.086034  0  3.451318  0
N  N280  1  0.11555047  0.06894067  0.87616818  1  -0.183465  0  -0.115302  -0.085923  0  3.451205  0
N  N281  1  0.88444871  0.43105723  0.37616541  1  -0.183466  0  -0.115347  -0.085991  0  3.451457  0
N  N282  1  0.86274286  0.94987323  0.17972075  1  -0.637134  0  -0.207907  -0.250869  0  3.249723  0
N  N283  1  0.13725604  0.55012477  0.67972129  1  -0.636975  0  -0.207823  -0.250749  0  3.24953  0
N  N284  1  0.13725627  0.05012745  0.82027997  1  -0.637081  0  -0.207895  -0.250881  0  3.249667  0
N  N285  1  0.86274283  0.44986899  0.32027635  1  -0.63713  0  -0.207792  -0.250663  0  3.249777  0
N  N286  1  0.64788567  0.79350792  0.08139483  1  -1.223161  0  -0.334602  -0.253545  0  3.513452  0
N  N287  1  0.35212009  0.70649137  0.58139839  1  -1.22366  0  -0.334576  -0.25361  0  3.513463  0
N  N288  1  0.35212234  0.20649697  0.91860193  1  -1.223304  0  -0.334481  -0.25339  0  3.513449  0
N  N289  1  0.64788083  0.29350378  0.41860454  1  -1.213778  0  -0.334571  -0.253556  0  3.51358  0
N  N290  1  0.24326030  0.91086324  0.04343866  1  -0.6686  0  -0.208563  -0.251254  0  3.202205  0
N  N291  1  0.75674078  0.58913459  0.54343790  1  -0.668393  0  -0.208419  -0.251111  0  3.202261  0
N  N292  1  0.75674188  0.08913400  0.95655942  1  -0.668388  0  -0.20846  -0.251076  0  3.202151  0
N  N293  1  0.24325993  0.41086471  0.45656018  1  -0.668591  0  -0.208472  -0.250992  0  3.202209  0
N  N294  1  0.12207578  0.89722724  0.04247235  1  -0.139877  0  -0.117855  -0.051084  0  3.491062  0
N  N295  1  0.87792771  0.60277407  0.54247283  1  -0.14001  0  -0.117894  -0.051174  0  3.491141  0
N  N296  1  0.87792722  0.10277485  0.95752617  1  -0.1399  0  -0.117838  -0.051137  0  3.491044  0
N  N297  1  0.12207400  0.39722040  0.45752657  1  -0.139841  0  -0.117853  -0.051267  0  3.490953  0
N  N298  1  0.08003621  0.81849959  0.07020162  1  -0.205771  0  -0.116648  -0.078705  0  3.46356  0
N  N299  1  0.91996788  0.68150037  0.57020256  1  -0.205874  0  -0.116636  -0.078699  0  3.463599  0
N  N300  1  0.91996849  0.18150182  0.92979866  1  -0.205856  0  -0.116684  -0.078747  0  3.46342  0
N  N301  1  0.08003258  0.31849202  0.42979860  1  -0.205792  0  -0.116602  -0.07855  0  3.463315  0
N  N302  1  0.17398157  0.77855750  0.08990925  1  -0.633395  0  -0.210341  -0.260527  0  3.209962  0
N  N303  1  0.82602496  0.72144112  0.58990984  1  -0.633369  0  -0.210344  -0.260462  0  3.20984  0
N  N304  1  0.82602529  0.22144600  0.91008972  1  -0.633484  0  -0.210357  -0.260486  0  3.209631  0
N  N305  1  0.17397538  0.27855057  0.41008869  1  -0.633601  0  -0.210339  -0.260496  0  3.209735  0
N  N306  1  0.85797797  0.86524333  0.98594574  1  -0.346865  0  -0.342937  -0.550097  0  3.107265  0
N  N307  1  0.14202804  0.63475373  0.48594861  1  -0.346847  0  -0.343034  -0.550209  0  3.107198  0
N  N308  1  0.14202922  0.13475672  0.01405411  1  -0.346929  0  -0.342994  -0.550141  0  3.10722  0
N  N309  1  0.85796959  0.36524348  0.51405432  1  -0.346888  0  -0.343023  -0.550097  0  3.107085  0
N  N310  1  0.77521929  0.85640635  0.95048879  1  -0.365882  0  0.083447  0.427781  0  4.494373  0
N  N311  1  0.22478477  0.64358926  0.45049117  1  -0.366359  0  0.083466  0.427765  0  4.494287  0
N  N312  1  0.22478585  0.14359229  0.04951061  1  -0.366129  0  0.083442  0.427776  0  4.494332  0
N  N313  1  0.77521433  0.35640589  0.54951176  1  -0.365717  0  0.083507  0.427699  0  4.494338  0
N  N314  1  0.69598853  0.84755424  0.91610130  1  0.009247  0  -0.186916  -0.383312  0  2.597455  0
N  N315  1  0.30401459  0.65244063  0.41610275  1  0.009722  0  -0.186847  -0.383201  0  2.597393  0
N  N316  1  0.30401831  0.15244372  0.08389898  1  0.00954  0  -0.186856  -0.383235  0  2.597361  0
N  N317  1  0.69598337  0.34755313  0.58390106  1  0.009089  0  -0.186902  -0.383203  0  2.597486  0
N  N318  1  0.93210711  0.60885529  0.93843157  1  -1.157199  0  -0.294568  -0.119852  0  3.629179  0
N  N319  1  0.06789264  0.89113612  0.43843112  1  -1.157113  0  -0.29456  -0.119745  0  3.628915  0
N  N320  1  0.06789715  0.39114889  0.06156827  1  -1.156864  0  -0.294524  -0.120048  0  3.629082  0
N  N321  1  0.93211086  0.10885282  0.56156740  1  -1.15711  0  -0.294574  -0.119803  0  3.629023  0
N  N322  1  0.80960259  0.49095176  0.97886659  1  -1.160329  0  -0.297794  -0.12632  0  3.630993  0
N  N323  1  0.19039359  0.00904625  0.47886407  1  -1.160346  0  -0.297806  -0.126403  0  3.631291  0
N  N324  1  0.19040384  0.50905450  0.02113502  1  -1.16089  0  -0.297901  -0.126415  0  3.631379  0
N  N325  1  0.80960607  0.99094682  0.52113357  1  -1.160668  0  -0.297888  -0.126282  0  3.631288  0
N  N326  1  0.65438231  0.69432608  0.35222060  1  -1.139696  0  -0.304872  -0.139659  0  3.624379  0
N  N327  1  0.34561437  0.80566174  0.85222598  1  -1.139765  0  -0.304905  -0.139157  0  3.624331  0
N  N328  1  0.34561817  0.30567184  0.64778057  1  -1.139745  0  -0.304921  -0.139567  0  3.624316  0
N  N329  1  0.65437986  0.19433683  0.14777518  1  -1.140104  0  -0.30493  -0.139215  0  3.624506  0
N  N330  1  0.59019670  0.78042022  0.28015131  1  -1.168424  0  -0.305042  -0.131563  0  3.67356  0
N  N331  1  0.40979108  0.71956745  0.78015440  1  -1.168562  0  -0.305091  -0.131809  0  3.673642  0
N  N332  1  0.40980105  0.21957769  0.71985074  1  -1.168596  0  -0.305029  -0.131429  0  3.673735  0
N  N333  1  0.59019347  0.28042760  0.21984721  1  -1.16806  0  -0.305051  -0.131675  0  3.673542  0
N  N334  1  0.31686223  0.89059760  0.33684118  1  -1.159499  0  -0.299764  -0.124162  0  3.651056  0
N  N335  1  0.68316257  0.60941669  0.83684048  1  -1.158962  0  -0.299871  -0.124382  0  3.651457  0
N  N336  1  0.68314144  0.10940311  0.66316175  1  -1.159631  0  -0.299736  -0.124258  0  3.651247  0
N  N337  1  0.31683141  0.39060195  0.16315187  1  -1.158741  0  -0.299831  -0.12437  0  3.651034  0
N  N338  1  0.26808039  0.93953396  0.24750849  1  -1.13334  0  -0.307198  -0.14477  0  3.62275  0
N  N339  1  0.73193001  0.56048496  0.74750024  1  -1.134563  0  -0.307318  -0.14472  0  3.622947  0
N  N340  1  0.73192182  0.06046881  0.75249752  1  -1.133306  0  -0.307216  -0.144725  0  3.622781  0
N  N341  1  0.26806825  0.43952679  0.25249343  1  -1.133356  0  -0.307252  -0.144723  0  3.622876  0
O  O342  1  0.82469061  0.63432188  0.02490019  1  -1.202822  0  -0.329177  -0.547828  0  2.304604  0
O  O343  1  0.17531076  0.86567731  0.52489868  1  -1.202763  0  -0.329185  -0.547872  0  2.304589  0
O  O344  1  0.17531400  0.36568437  0.97510098  1  -1.202739  0  -0.329174  -0.547804  0  2.304749  0
O  O345  1  0.82469163  0.13431578  0.47509940  1  -1.202915  0  -0.329104  -0.547661  0  2.304693  0
O  O346  1  0.71376544  0.85505694  0.35441594  1  -1.200254  0  -0.332267  -0.559902  0  2.143655  0
O  O347  1  0.28622832  0.64494056  0.85441776  1  -1.200618  0  -0.332263  -0.559867  0  2.143858  0
O  O348  1  0.28622993  0.14494303  0.64558610  1  -1.20019  0  -0.332273  -0.559918  0  2.143618  0
O  O349  1  0.71375638  0.35506072  0.14558561  1  -1.200269  0  -0.332288  -0.55996  0  2.143762  0
O  O350  1  0.37660021  0.04583359  0.31262362  1  -1.19821  0  -0.327733  -0.55207  0  2.159848  0
O  O351  1  0.62340682  0.45417743  0.81261700  1  -1.197783  0  -0.327661  -0.552064  0  2.159857  0
O  O352  1  0.62337495  0.95417039  0.68738372  1  -1.198296  0  -0.327731  -0.552107  0  2.159738  0
O  O353  1  0.37659672  0.54584404  0.18737668  1  -1.19825  0  -0.32782  -0.552219  0  2.159404  0
