# generated using pymatgen
data_ErH20C18N2O11
_symmetry_space_group_name_H-M   'P 1'
_cell_length_a   10.64781984
_cell_length_b   10.79686298
_cell_length_c   12.89780000
_cell_angle_alpha   103.34520659
_cell_angle_beta   110.94499240
_cell_angle_gamma   96.82616826
_symmetry_Int_Tables_number   1
_chemical_formula_structural   ErH20C18N2O11
_chemical_formula_sum   'Er2 H40 C36 N4 O22'
_cell_volume   1313.90221202
_cell_formula_units_Z   2
loop_
 _symmetry_equiv_pos_site_id
 _symmetry_equiv_pos_as_xyz
  1  'x, y, z'
loop_
 _atom_site_type_symbol
 _atom_site_label
 _atom_site_symmetry_multiplicity
 _atom_site_fract_x
 _atom_site_fract_y
 _atom_site_fract_z
 _atom_site_occupancy
 _atom_site_hle17_bader_spin_density
 _atom_site_hle17_ddec_charge
 _atom_site_hle17_ddec_spin_density
 _atom_site_hle17_ddec_sum_bond_order
 _atom_site_hle17_magmom
 _atom_site_hse06_10hf_bader_spin_density
 _atom_site_hse06_10hf_ddec_charge
 _atom_site_hse06_10hf_ddec_spin_density
 _atom_site_hse06_10hf_ddec_sum_bond_order
 _atom_site_hse06_10hf_magmom
 _atom_site_hse06_bader_spin_density
 _atom_site_hse06_ddec_charge
 _atom_site_hse06_ddec_spin_density
 _atom_site_hse06_ddec_sum_bond_order
 _atom_site_hse06_magmom
 _atom_site_pbe_bader_charge
 _atom_site_pbe_bader_spin_density
 _atom_site_pbe_cm5_charge
 _atom_site_pbe_ddec_charge
 _atom_site_pbe_ddec_spin_density
 _atom_site_pbe_ddec_sum_bond_order
 _atom_site_pbe_magmom
Er  Er0  1  0.10420868  0.54397583  0.68423014  1  0  2.265796  0  1.635435  0  0  2.115823  0  2.116086  0  0  2.249523  0  1.915424  0  2.192195  0  1.519625  2.079864  0  2.145628  0
Er  Er1  1  0.89579302  0.45602206  0.31576662  1  0  2.265912  0  1.635331  0  0  2.115911  0  2.115991  0  0  2.249641  0  1.915322  0  2.192179  0  1.519694  2.080033  0  2.145453  0
H  H2  1  0.93376282  0.14576052  0.30252016  1  0  0.387984  0  0.892197  0  0  0.360614  0  0.968932  0  0  0.371953  0  0.956158  0  0.647349  0  0.303393  0.352635  0  0.977844  0
H  H3  1  0.06623453  0.85424029  0.69747666  1  0  0.388001  0  0.892175  0  0  0.360629  0  0.96891  0  0  0.37196  0  0.956147  0  0.647386  0  0.303405  0.352647  0  0.977825  0
H  H4  1  0.21776248  0.40022719  0.27487833  1  0  0.385288  0  0.898916  0  0  0.359776  0  0.972026  0  0  0.371837  0  0.958134  0  0.652455  0  0.301578  0.351408  0  0.981373  0
H  H5  1  0.78224653  0.59978046  0.72512247  1  0  0.385208  0  0.898955  0  0  0.359691  0  0.972079  0  0  0.371757  0  0.958178  0  0.652327  0  0.30154  0.351325  0  0.981425  0
H  H6  1  0.17909818  0.89539849  0.93320156  1  0  0.38921  0  0.883258  0  0  0.365705  0  0.951664  0  0  0.377348  0  0.938559  0  0.637794  0  0.304283  0.35758  0  0.960616  0
H  H7  1  0.82089223  0.10459842  0.06679866  1  0  0.389216  0  0.883271  0  0  0.36569  0  0.951719  0  0  0.377332  0  0.938614  0  0.637911  0  0.304243  0.357563  0  0.960676  0
H  H8  1  0.00262594  0.16387821  0.67106769  1  0  0.116888  0  0.956764  0  0  0.123227  0  1.024556  0  0  0.127495  0  1.021139  0  0.120565  0  0.107323  0.120252  0  1.026872  0
H  H9  1  0.99737667  0.83612358  0.32892854  1  0  0.116941  0  0.956722  0  0  0.123267  0  1.024515  0  0  0.127538  0  1.021097  0  0.120533  0  0.107326  0.120293  0  1.02683  0
H  H10  1  0.42287171  0.56954169  0.66060731  1  0  0.130318  0  0.963455  0  0  0.136797  0  1.030807  0  0  0.141063  0  1.027267  0  0.117443  0  0.111616  0.133407  0  1.034031  0
H  H11  1  0.57713670  0.43045913  0.33939355  1  0  0.13038  0  0.963577  0  0  0.136807  0  1.030972  0  0  0.141073  0  1.027433  0  0.117279  0  0.111653  0.133419  0  1.034193  0
H  H12  1  0.55718196  0.82232251  0.87493613  1  0  0.135018  0  0.924164  0  0  0.146243  0  0.979235  0  0  0.150973  0  0.975256  0  0.129164  0  0.113746  0.142723  0  0.982304  0
H  H13  1  0.44281046  0.17767441  0.12505847  1  0  0.135007  0  0.924236  0  0  0.146215  0  0.979317  0  0  0.150953  0  0.975328  0  0.129207  0  0.113718  0.142703  0  0.982374  0
H  H14  1  0.44692629  0.51633854  0.83051542  1  0  0.047775  0  0.933924  0  0  0.056176  0  1.003406  0  0  0.058528  0  0.997513  0  0.09856  0  0.127339  0.054392  0  1.007629  0
H  H15  1  0.55306435  0.48365934  0.16948505  1  0  0.047755  0  0.933903  0  0  0.056165  0  1.003394  0  0  0.058524  0  0.997486  0  0.098482  0  0.12728  0.054381  0  1.007621  0
H  H16  1  0.63512293  0.45345766  0.89692021  1  0  0.102367  0  0.956339  0  0  0.120431  0  1.024457  0  0  0.121551  0  1.023527  0  0.09338  0  0.110462  0.119495  0  1.025287  0
H  H17  1  0.36487209  0.54654608  0.10308890  1  0  0.102374  0  0.956399  0  0  0.120467  0  1.024481  0  0  0.121567  0  1.023572  0  0.093175  0  0.110536  0.119531  0  1.025308  0
H  H18  1  0.63754732  0.28609648  0.84648263  1  0  0.096158  0  0.940681  0  0  0.116512  0  1.00405  0  0  0.117101  0  1.004262  0  0.060481  0  0.105589  0.116051  0  1.003954  0
H  H19  1  0.36245242  0.71391019  0.15352765  1  0  0.09619  0  0.940667  0  0  0.116531  0  1.004046  0  0  0.117119  0  1.004257  0  0.060545  0  0.105583  0.116068  0  1.003951  0
H  H20  1  0.61728914  0.34454555  0.97917912  1  0  0.103925  0  0.944836  0  0  0.122122  0  1.010315  0  0  0.12238  0  1.010795  0  0.077286  0  0.105194  0.121965  0  1.009813  0
H  H21  1  0.38270689  0.65545819  0.02082873  1  0  0.103884  0  0.944754  0  0  0.122072  0  1.010257  0  0  0.122326  0  1.010723  0  0.077412  0  0.105148  0.121902  0  1.009772  0
H  H22  1  0.25960525  0.18215502  0.73829512  1  0  0.122091  0  0.95846  0  0  0.138808  0  1.022962  0  0  0.140308  0  1.02208  0  0.120754  0  0.112337  0.137722  0  1.023485  0
H  H23  1  0.74039288  0.81784482  0.26171027  1  0  0.122086  0  0.958458  0  0  0.138758  0  1.022993  0  0  0.140257  0  1.022117  0  0.120279  0  0.112382  0.137674  0  1.023514  0
H  H24  1  0.37628048  0.15797435  0.86841493  1  0  0.09562  0  0.960218  0  0  0.113693  0  1.028711  0  0  0.112803  0  1.031224  0  0.068209  0  0.100782  0.114341  0  1.026862  0
H  H25  1  0.62371843  0.84202452  0.13159050  1  0  0.095628  0  0.960224  0  0  0.113681  0  1.028721  0  0  0.112795  0  1.031227  0  0.068343  0  0.100742  0.114333  0  1.026868  0
H  H26  1  0.41167225  0.12529124  0.74089796  1  0  0.097174  0  0.913386  0  0  0.120291  0  0.968932  0  0  0.120241  0  0.969641  0  0.0621  0  0.108443  0.120321  0  0.968437  0
H  H27  1  0.58832734  0.87471055  0.25910746  1  0  0.097078  0  0.913345  0  0  0.120203  0  0.968885  0  0  0.120155  0  0.969592  0  0.062012  0  0.108401  0.120237  0  0.968389  0
H  H28  1  0.87280887  0.35684528  0.74608470  1  0  0.044136  0  0.915125  0  0  0.052421  0  0.983212  0  0  0.054607  0  0.977639  0  0.088354  0  0.129113  0.050695  0  0.9874  0
H  H29  1  0.12719439  0.64315066  0.25391679  1  0  0.044188  0  0.915015  0  0  0.052451  0  0.983132  0  0  0.054624  0  0.977562  0  0.088308  0  0.129136  0.050723  0  0.987322  0
H  H30  1  0.79652120  0.18384282  0.78112607  1  0  0.096661  0  0.933786  0  0  0.118343  0  0.994614  0  0  0.118751  0  0.994692  0  0.06104  0  0.111366  0.117976  0  0.9946  0
H  H31  1  0.20347849  0.81615507  0.21887552  1  0  0.096641  0  0.933845  0  0  0.118331  0  0.994657  0  0  0.118747  0  0.994726  0  0.060994  0  0.11136  0.117967  0  0.994639  0
H  H32  1  0.85447134  0.20205226  0.93365092  1  0  0.108478  0  0.943836  0  0  0.126661  0  1.007877  0  0  0.128054  0  1.007246  0  0.084125  0  0.107014  0.125584  0  1.008379  0
H  H33  1  0.14553090  0.79794367  0.06635105  1  0  0.10849  0  0.943796  0  0  0.12668  0  1.007834  0  0  0.128074  0  1.007205  0  0.084154  0  0.107004  0.125603  0  1.008337  0
H  H34  1  0.92236072  0.09926268  0.84712953  1  0  0.122052  0  0.915262  0  0  0.142223  0  0.973307  0  0  0.14373  0  0.972404  0  0.094173  0  0.115288  0.141083  0  0.974049  0
H  H35  1  0.07763773  0.90073423  0.15287073  1  0  0.122  0  0.915345  0  0  0.142169  0  0.97339  0  0  0.143678  0  0.972488  0  0.094221  0  0.115261  0.14103  0  0.974131  0
H  H36  1  0.20176306  0.39120544  0.97621797  1  0  0.10795  0  0.956417  0  0  0.126399  0  1.021185  0  0  0.127856  0  1.02004  0  0.077577  0  0.110065  0.125374  0  1.021805  0
H  H37  1  0.79823841  0.60879147  0.02378008  1  0  0.107952  0  0.956439  0  0  0.126404  0  1.021205  0  0  0.127865  0  1.020058  0  0.077591  0  0.11006  0.125382  0  1.021819  0
H  H38  1  0.15750388  0.22419079  0.97373604  1  0  0.114351  0  0.923539  0  0  0.136081  0  0.983166  0  0  0.136883  0  0.982786  0  0.102182  0  0.113148  0.135358  0  0.983578  0
H  H39  1  0.84250084  0.77580709  0.02626626  1  0  0.114384  0  0.923583  0  0  0.136086  0  0.98323  0  0  0.136891  0  0.982847  0  0.102233  0  0.113151  0.135366  0  0.983634  0
H  H40  1  0.11339122  0.34945568  0.06269599  1  0  0.109635  0  0.92751  0  0  0.13333  0  0.98356  0  0  0.133619  0  0.983756  0  0.083542  0  0.111092  0.133019  0  0.983469  0
H  H41  1  0.88661294  0.65054416  0.93730497  1  0  0.10966  0  0.927531  0  0  0.133373  0  0.983549  0  0  0.133663  0  0.983747  0  0.083579  0  0.111101  0.133062  0  0.983458  0
C  C42  1  0.97444488  0.03050234  0.39407626  1  0  0.304414  0  3.831526  0  0  0.29121  0  4.096952  0  0  0.301489  0  4.11363  0  0.493721  0  0.079133  0.284028  0  4.085194  0
C  C43  1  0.02555919  0.96950140  0.60592156  1  0  0.304502  0  3.831351  0  0  0.291215  0  4.097014  0  0  0.301498  0  4.113691  0  0.493387  0  0.07912  0.28403  0  4.085258  0
C  C44  1  0.97497027  0.12311732  0.49249196  1  0  -0.176109  0  3.753397  0  0  -0.162935  0  3.994359  0  0  -0.171497  0  4.013076  0  0.005173  0  -0.032086  -0.156793  0  3.980454  0
C  C45  1  0.02503659  0.87688545  0.50750494  1  0  -0.176115  0  3.753239  0  0  -0.16305  0  3.994465  0  0  -0.171626  0  4.013187  0  0.00544  0  -0.032126  -0.156916  0  3.980555  0
C  C46  1  0.00053439  0.09094377  0.59613310  1  0  -0.170338  0  3.734014  0  0  -0.20376  0  3.99581  0  0  -0.204812  0  4.011824  0  -0.023201  0  -0.102905  -0.202761  0  3.984516  0
C  C47  1  0.99946969  0.90905997  0.40386472  1  0  -0.170409  0  3.734003  0  0  -0.203802  0  3.995779  0  0  -0.204855  0  4.011794  0  -0.023612  0  -0.102904  -0.202809  0  3.984483  0
C  C48  1  0.95406745  0.25591432  0.48945980  1  0  0.743071  0  3.820354  0  0  0.696784  0  4.10684  0  0  0.734956  0  4.09645  0  1.548991  0  0.233491  0.671213  0  4.116213  0
C  C49  1  0.04593493  0.74408649  0.51053927  1  0  0.743097  0  3.820261  0  0  0.696797  0  4.106795  0  0  0.734979  0  4.096413  0  1.548562  0  0.233491  0.671249  0  4.116151  0
C  C50  1  0.40221059  0.44880134  0.38361899  1  0  0.30181  0  3.831333  0  0  0.287813  0  4.099124  0  0  0.297973  0  4.116169  0  0.489944  0  0.072697  0.280752  0  4.08728  0
C  C51  1  0.59779920  0.55120533  0.61638108  1  0  0.301774  0  3.831447  0  0  0.287829  0  4.099177  0  0  0.297979  0  4.116225  0  0.490269  0  0.072702  0.280777  0  4.08733  0
C  C52  1  0.35912180  0.48573663  0.47652461  1  0  -0.175556  0  3.7573  0  0  -0.160426  0  3.996617  0  0  -0.169045  0  4.015639  0  -0.004709  0  -0.031249  -0.154939  0  3.982747  0
C  C53  1  0.64088854  0.51426809  0.52347447  1  0  -0.175504  0  3.757232  0  0  -0.160387  0  3.996565  0  0  -0.168998  0  4.015574  0  -0.004845  0  -0.031216  -0.154916  0  3.982715  0
C  C54  1  0.45737388  0.53731543  0.59098877  1  0  -0.165476  0  3.706258  0  0  -0.200041  0  3.962658  0  0  -0.201395  0  3.979334  0  0.019234  0  -0.099254  -0.198689  0  3.951279  0
C  C55  1  0.54263646  0.46268929  0.40901185  1  0  -0.165545  0  3.70627  0  0  -0.200043  0  3.962717  0  0  -0.201404  0  3.979396  0  0.019524  0  -0.099283  -0.198687  0  3.951347  0
C  C56  1  0.21079617  0.46961618  0.45419952  1  0  0.736363  0  3.822231  0  0  0.69047  0  4.106693  0  0  0.728107  0  4.097887  0  1.527618  0  0.231113  0.66592  0  4.114864  0
C  C57  1  0.78921215  0.53038854  0.54580361  1  0  0.736386  0  3.822064  0  0  0.690448  0  4.106614  0  0  0.728069  0  4.097815  0  1.52738  0  0.231151  0.66589  0  4.1148  0
C  C58  1  0.36420985  0.98874071  0.99639510  1  0  0.300993  0  3.836873  0  0  0.284213  0  4.111125  0  0  0.295143  0  4.126921  0  0.542898  0  0.078904  0.27653  0  4.100142  0
C  C59  1  0.63578001  0.01125815  0.00359913  1  0  0.300747  0  3.837181  0  0  0.284051  0  4.111313  0  0  0.294981  0  4.127108  0  0.542735  0  0.078817  0.276373  0  4.100323  0
C  C60  1  0.39901250  0.88803330  0.92626419  1  0  -0.173974  0  3.788559  0  0  -0.160072  0  4.035547  0  0  -0.168298  0  4.05554  0  -0.015805  0  -0.033822  -0.154069  0  4.021225  0
C  C61  1  0.60097781  0.11196752  0.07372822  1  0  -0.173991  0  3.78863  0  0  -0.160108  0  4.035544  0  0  -0.168339  0  4.05554  0  -0.015985  0  -0.033873  -0.154112  0  4.021232  0
C  C62  1  0.53320150  0.90058487  0.93005340  1  0  -0.1706  0  3.711694  0  0  -0.203622  0  3.968839  0  0  -0.204732  0  3.983795  0  -0.064163  0  -0.096973  -0.20277  0  3.958535  0
C  C63  1  0.46678758  0.09941497  0.06993924  1  0  -0.170756  0  3.711652  0  0  -0.203742  0  3.96884  0  0  -0.204855  0  3.983787  0  -0.063654  0  -0.096993  -0.202892  0  3.958541  0
C  C64  1  0.29477786  0.76712700  0.85012728  1  0  0.640243  0  3.945401  0  0  0.593066  0  4.24074  0  0  0.626932  0  4.239472  0  1.508876  0  0.188081  0.569157  0  4.247143  0
C  C65  1  0.70521433  0.23286893  0.14986707  1  0  0.640293  0  3.945384  0  0  0.593122  0  4.240723  0  0  0.626993  0  4.239438  0  1.50936  0  0.188063  0.569214  0  4.247117  0
C  C66  1  0.37824404  0.41877537  0.79994026  1  0  0.40787  0  3.813452  0  0  0.334158  0  4.102554  0  0  0.362931  0  4.105271  0  1.373463  0  0.180625  0.315113  0  4.102181  0
C  C67  1  0.62175085  0.58122350  0.20006088  1  0  0.407836  0  3.813471  0  0  0.334135  0  4.102577  0  0  0.362898  0  4.105292  0  1.373464  0  0.180621  0.315075  0  4.102204  0
C  C68  1  0.59125012  0.35385039  0.89124757  1  0  -0.171854  0  3.672155  0  0  -0.274499  0  3.92255  0  0  -0.270975  0  3.933689  0  0.227224  0  -0.126288  -0.276572  0  3.91462  0
C  C69  1  0.40874792  0.64615335  0.10876165  1  0  -0.171857  0  3.672266  0  0  -0.274499  0  3.922634  0  0  -0.270945  0  3.933778  0  0.22721  0  -0.126273  -0.27656  0  3.91471  0
C  C70  1  0.36793834  0.18948409  0.79153538  1  0  -0.163867  0  3.635739  0  0  -0.261506  0  3.875037  0  0  -0.257491  0  3.885372  0  0.232552  0  -0.132198  -0.26398  0  3.867571  0
C  C71  1  0.63205957  0.81051477  0.20846975  1  0  -0.16373  0  3.635763  0  0  -0.26131  0  3.875082  0  0  -0.2573  0  3.885418  0  0.23326  0  -0.132136  -0.263791  0  3.867611  0
C  C72  1  0.97510374  0.38290508  0.81866979  1  0  0.417201  0  3.811536  0  0  0.340334  0  4.108282  0  0  0.369321  0  4.110935  0  1.387919  0  0.183341  0.320543  0  4.109544  0
C  C73  1  0.02489604  0.61708891  0.18132952  1  0  0.417134  0  3.811668  0  0  0.340302  0  4.108388  0  0  0.369304  0  4.111024  0  1.387936  0  0.183314  0.320504  0  4.109655  0
C  C74  1  0.88561680  0.19021720  0.86007516  1  0  -0.179527  0  3.661735  0  0  -0.282261  0  3.911143  0  0  -0.279478  0  3.92198  0  0.258374  0  -0.126071  -0.283828  0  3.903684  0
C  C75  1  0.11438266  0.80977971  0.13992695  1  0  -0.179536  0  3.661745  0  0  -0.282264  0  3.91115  0  0  -0.279494  0  3.921992  0  0.258676  0  -0.126024  -0.28384  0  3.90369  0
C  C76  1  0.12496009  0.31752813  0.97996155  1  0  -0.164209  0  3.621623  0  0  -0.264873  0  3.861267  0  0  -0.261109  0  3.870707  0  0.228334  0  -0.126551  -0.26707  0  3.85454  0
C  C77  1  0.87504138  0.68246878  0.02003806  1  0  -0.164349  0  3.621717  0  0  -0.265013  0  3.861373  0  0  -0.261252  0  3.870812  0  0.228245  0  -0.126591  -0.267206  0  3.854646  0
N  N78  1  0.44286902  0.32414656  0.82612585  1  0  -0.086825  0  3.499141  0  0  0.019814  0  3.729471  0  0  -0.000449  0  3.753723  0  -1.195434  0  -0.276915  0.033651  0  3.711891  0
N  N79  1  0.55712834  0.67585426  0.17388104  1  0  -0.086851  0  3.499417  0  0  0.019773  0  3.729761  0  0  -0.000497  0  3.754016  0  -1.195739  0  -0.276937  0.033612  0  3.712176  0
N  N80  1  0.99461480  0.30057697  0.88288884  1  0  -0.074514  0  3.492278  0  0  0.030001  0  3.727536  0  0  0.010315  0  3.752034  0  -1.21371  0  -0.271555  0.043296  0  3.710169  0
N  N81  1  0.00538667  0.69941995  0.11711231  1  0  -0.074369  0  3.492157  0  0  0.030143  0  3.727392  0  0  0.010453  0  3.751898  0  -1.213984  0  -0.271534  0.043436  0  3.710031  0
O  O82  1  0.97095170  0.33959735  0.58309696  1  0  -0.742624  0  2.09673  0  0  -0.69314  0  2.356146  0  0  -0.730526  0  2.341745  0  -1.206319  0  -0.40156  -0.675385  0  2.363465  0
O  O83  1  0.02904776  0.66039956  0.41689430  1  0  -0.742677  0  2.096436  0  0  -0.693225  0  2.35596  0  0  -0.73061  0  2.341552  0  -1.205921  0  -0.401609  -0.67547  0  2.363248  0
O  O84  1  0.92123344  0.27922230  0.39079725  1  0  -0.741344  0  2.111621  0  0  -0.683179  0  2.353238  0  0  -0.720719  0  2.339446  0  -1.185429  0  -0.379253  -0.665006  0  2.360699  0
O  O85  1  0.07876424  0.72077559  0.60919522  1  0  -0.741332  0  2.111778  0  0  -0.683111  0  2.353361  0  0  -0.720644  0  2.339588  0  -1.1853  0  -0.37923  -0.664937  0  2.360835  0
O  O86  1  0.95033557  0.05494463  0.29082421  1  0  -0.51601  0  2.070451  0  0  -0.474677  0  2.27665  0  0  -0.492207  0  2.266705  0  -1.165601  0  -0.366241  -0.461891  0  2.282729  0
O  O87  1  0.04966403  0.94505716  0.70917269  1  0  -0.515989  0  2.070439  0  0  -0.474603  0  2.27667  0  0  -0.492125  0  2.266739  0  -1.165612  0  -0.366147  -0.461813  0  2.282753  0
O  O88  1  0.17334755  0.49184647  0.53813631  1  0  -0.762787  0  2.156153  0  0  -0.712478  0  2.420846  0  0  -0.753582  0  2.407452  0  -1.206112  0  -0.402472  -0.695112  0  2.428894  0
O  O89  1  0.82666512  0.50815532  0.46186599  1  0  -0.762876  0  2.155983  0  0  -0.712563  0  2.420733  0  0  -0.753656  0  2.407321  0  -1.205981  0  -0.402555  -0.695199  0  2.428779  0
O  O90  1  0.12280429  0.43286148  0.34719915  1  0  -0.727817  0  2.046344  0  0  -0.672223  0  2.283334  0  0  -0.707545  0  2.267321  0  -1.178712  0  -0.375797  -0.654877  0  2.291455  0
O  O91  1  0.87720102  0.56714324  0.65280154  1  0  -0.727773  0  2.046455  0  0  -0.672162  0  2.283475  0  0  -0.707482  0  2.267473  0  -1.178758  0  -0.375788  -0.654812  0  2.291612  0
O  O92  1  0.31066747  0.40030919  0.27080848  1  0  -0.529672  0  2.060364  0  0  -0.487692  0  2.26551  0  0  -0.505726  0  2.254892  0  -1.186061  0  -0.371121  -0.47472  0  2.272228  0
O  O93  1  0.68934022  0.59970139  0.72919017  1  0  -0.529544  0  2.060397  0  0  -0.487593  0  2.265544  0  0  -0.505624  0  2.254923  0  -1.18634  0  -0.371064  -0.474617  0  2.272255  0
O  O94  1  0.17110219  0.75270997  0.84693957  1  0  -0.684584  0  1.965454  0  0  -0.63278  0  2.19174  0  0  -0.663488  0  2.179796  0  -1.169353  0  -0.348345  -0.617019  0  2.199834  0
O  O95  1  0.82889023  0.24728694  0.15305736  1  0  -0.684631  0  1.965501  0  0  -0.632821  0  2.191796  0  0  -0.663531  0  2.179842  0  -1.169571  0  -0.348344  -0.617066  0  2.199883  0
O  O96  1  0.32691336  0.67639701  0.78819799  1  0  -0.704501  0  2.028101  0  0  -0.659094  0  2.277195  0  0  -0.693732  0  2.26616  0  -1.19782  0  -0.385669  -0.641831  0  2.28402  0
O  O97  1  0.67308308  0.32359990  0.21180090  1  0  -0.704519  0  2.028049  0  0  -0.659102  0  2.277142  0  0  -0.693754  0  2.266099  0  -1.197956  0  -0.385633  -0.641851  0  2.283953  0
O  O98  1  0.23472577  0.98098603  0.99318450  1  0  -0.515023  0  2.069207  0  0  -0.472795  0  2.27241  0  0  -0.49099  0  2.262451  0  -1.15619  0  -0.361805  -0.459612  0  2.278667  0
O  O99  1  0.76526719  0.01900893  0.00681455  1  0  -0.514955  0  2.069172  0  0  -0.472743  0  2.272337  0  0  -0.490934  0  2.262372  0  -1.156314  0  -0.361724  -0.459563  0  2.278598  0
O  O100  1  0.25078841  0.40157528  0.74597386  1  0  -0.606547  0  2.133895  0  0  -0.557664  0  2.395631  0  0  -0.591879  0  2.38772  0  -1.166518  0  -0.355449  -0.541015  0  2.398372  0
O  O101  1  0.74920634  0.59841871  0.25402319  1  0  -0.606498  0  2.133905  0  0  -0.557628  0  2.395661  0  0  -0.591833  0  2.387728  0  -1.166372  0  -0.355427  -0.540978  0  2.398384  0
O  O102  1  0.06335263  0.48201060  0.83567660  1  0  -0.626997  0  2.090048  0  0  -0.579703  0  2.352261  0  0  -0.613996  0  2.342488  0  -1.177731  0  -0.372582  -0.563413  0  2.356969  0
O  O103  1  0.93665309  0.51798729  0.16432367  1  0  -0.627022  0  2.090278  0  0  -0.579745  0  2.352501  0  0  -0.614036  0  2.342708  0  -1.177833  0  -0.37261  -0.563461  0  2.357199  0
