# generated using pymatgen
data_MoH2C2NO3
_symmetry_space_group_name_H-M   'P 1'
_cell_length_a   7.46814155
_cell_length_b   7.67436219
_cell_length_c   13.90155595
_cell_angle_alpha   89.99678044
_cell_angle_beta   90.00174254
_cell_angle_gamma   90.00019584
_symmetry_Int_Tables_number   1
_chemical_formula_structural   MoH2C2NO3
_chemical_formula_sum   'Mo8 H16 C16 N8 O24'
_cell_volume   796.74297681
_cell_formula_units_Z   8
loop_
 _symmetry_equiv_pos_site_id
 _symmetry_equiv_pos_as_xyz
  1  'x, y, z'
loop_
 _atom_site_type_symbol
 _atom_site_label
 _atom_site_symmetry_multiplicity
 _atom_site_fract_x
 _atom_site_fract_y
 _atom_site_fract_z
 _atom_site_occupancy
 _atom_site_hle17_bader_spin_density
 _atom_site_hle17_ddec_charge
 _atom_site_hle17_ddec_spin_density
 _atom_site_hle17_ddec_sum_bond_order
 _atom_site_hle17_magmom
 _atom_site_hse06_10hf_bader_spin_density
 _atom_site_hse06_10hf_ddec_charge
 _atom_site_hse06_10hf_ddec_spin_density
 _atom_site_hse06_10hf_ddec_sum_bond_order
 _atom_site_hse06_10hf_magmom
 _atom_site_hse06_bader_spin_density
 _atom_site_hse06_ddec_charge
 _atom_site_hse06_ddec_spin_density
 _atom_site_hse06_ddec_sum_bond_order
 _atom_site_hse06_magmom
 _atom_site_pbe_bader_spin_density
 _atom_site_pbe_cm5_charge
 _atom_site_pbe_ddec_charge
 _atom_site_pbe_ddec_spin_density
 _atom_site_pbe_ddec_sum_bond_order
 _atom_site_pbe_magmom
Mo  Mo0  1  0.91833444  0.46777319  0.27279041  1  0  2.255905  0  4.103877  0  0  2.270197  0  4.628199  0  0  2.379326  0  4.58771  0  0  1.583103  2.196147  0  4.654906  0
Mo  Mo1  1  0.91839061  0.96771855  0.22720529  1  0  2.255812  0  4.102635  0  0  2.269827  0  4.627479  0  0  2.378985  0  4.586956  0  0  1.583044  2.195785  0  4.654173  0
Mo  Mo2  1  0.58165993  0.46775732  0.77279311  1  0  2.25589  0  4.103563  0  0  2.270211  0  4.627776  0  0  2.379339  0  4.587297  0  0  1.583012  2.196164  0  4.654482  0
Mo  Mo3  1  0.41837671  0.03226682  0.27279638  1  0  2.255968  0  4.10322  0  0  2.270166  0  4.627741  0  0  2.37931  0  4.587221  0  0  1.583197  2.196117  0  4.654439  0
Mo  Mo4  1  0.08167000  0.53221716  0.72720749  1  0  2.255968  0  4.103821  0  0  2.270294  0  4.628075  0  0  2.379424  0  4.587581  0  0  1.583154  2.196234  0  4.654785  0
Mo  Mo5  1  0.08161919  0.03228092  0.77279117  1  0  2.255694  0  4.102677  0  0  2.26974  0  4.627454  0  0  2.37889  0  4.586933  0  0  1.582909  2.1957  0  4.654137  0
Mo  Mo6  1  0.41834451  0.53224606  0.22721198  1  0  2.255883  0  4.103467  0  0  2.270216  0  4.627678  0  0  2.379344  0  4.587205  0  0  1.583016  2.196159  0  4.654401  0
Mo  Mo7  1  0.58162638  0.96772223  0.72720799  1  0  2.255863  0  4.103282  0  0  2.269979  0  4.627967  0  0  2.37913  0  4.587427  0  0  1.583031  2.195926  0  4.654659  0
H  H8  1  0.13363658  0.27004302  0.09663768  1  0  0.107562  0  0.927758  0  0  0.112997  0  0.990007  0  0  0.11658  0  0.987228  0  0  0.12827  0.110279  0  0.99226  0
H  H9  1  0.13365761  0.77006770  0.40337787  1  0  0.107642  0  0.927841  0  0  0.113047  0  0.990104  0  0  0.11665  0  0.9873  0  0  0.1283  0.110326  0  0.992361  0
H  H10  1  0.36639557  0.27004669  0.59663629  1  0  0.107686  0  0.927858  0  0  0.11299  0  0.990233  0  0  0.116566  0  0.987464  0  0  0.128296  0.110289  0  0.992456  0
H  H11  1  0.63365479  0.22996328  0.09662862  1  0  0.107563  0  0.927818  0  0  0.112995  0  0.990077  0  0  0.116575  0  0.987299  0  0  0.128263  0.110284  0  0.992325  0
H  H12  1  0.86638125  0.72997340  0.90335446  1  0  0.107433  0  0.927751  0  0  0.112911  0  0.989986  0  0  0.116495  0  0.987207  0  0  0.128221  0.110242  0  0.992178  0
H  H13  1  0.86633879  0.22993699  0.59661643  1  0  0.107605  0  0.927813  0  0  0.113032  0  0.990093  0  0  0.116653  0  0.987264  0  0  0.128291  0.110313  0  0.992352  0
H  H14  1  0.63361154  0.72994236  0.40336737  1  0  0.107651  0  0.927849  0  0  0.112965  0  0.990253  0  0  0.116538  0  0.987486  0  0  0.12828  0.110241  0  0.992507  0
H  H15  1  0.36632688  0.77003749  0.90337144  1  0  0.107576  0  0.927726  0  0  0.113077  0  0.989918  0  0  0.116656  0  0.987142  0  0  0.128281  0.110362  0  0.992166  0
H  H16  1  0.78197470  0.68795927  0.07771548  1  0  0.101824  0  0.931398  0  0  0.107017  0  0.994787  0  0  0.110399  0  0.992359  0  0  0.126858  0.104511  0  0.996723  0
H  H17  1  0.78196426  0.18793605  0.42224987  1  0  0.101657  0  0.931694  0  0  0.106935  0  0.994948  0  0  0.110301  0  0.99255  0  0  0.126826  0.104432  0  0.99687  0
H  H18  1  0.71802266  0.68795716  0.57773208  1  0  0.101699  0  0.931585  0  0  0.106949  0  0.994907  0  0  0.110321  0  0.992474  0  0  0.12682  0.104434  0  0.996861  0
H  H19  1  0.28198150  0.81204859  0.07774726  1  0  0.101721  0  0.931641  0  0  0.106936  0  0.994963  0  0  0.110305  0  0.992549  0  0  0.126819  0.104436  0  0.996887  0
H  H20  1  0.21802706  0.31204411  0.92226803  1  0  0.101682  0  0.93157  0  0  0.106907  0  0.99492  0  0  0.110281  0  0.992488  0  0  0.126806  0.104404  0  0.996854  0
H  H21  1  0.21801473  0.81206863  0.57774659  1  0  0.101733  0  0.931665  0  0  0.107012  0  0.99491  0  0  0.110366  0  0.992531  0  0  0.12688  0.104509  0  0.996832  0
H  H22  1  0.28197508  0.31204101  0.42227446  1  0  0.101697  0  0.93151  0  0  0.106939  0  0.994881  0  0  0.110314  0  0.992446  0  0  0.126803  0.104427  0  0.996828  0
H  H23  1  0.71801490  0.18796131  0.92225568  1  0  0.101744  0  0.931523  0  0  0.106989  0  0.994824  0  0  0.110369  0  0.992421  0  0  0.126833  0.104488  0  0.996752  0
C  C24  1  0.07440351  0.37306713  0.05333953  1  0  0.111868  0  3.63434  0  0  0.088998  0  3.886159  0  0  0.09325  0  3.899955  0  0  0.063425  0.086142  0  3.877053  0
C  C25  1  0.07442968  0.87309410  0.44666499  1  0  0.11146  0  3.634622  0  0  0.088688  0  3.886326  0  0  0.092927  0  3.900117  0  0  0.063287  0.085835  0  3.877227  0
C  C26  1  0.42560697  0.37307519  0.55333986  1  0  0.111797  0  3.634696  0  0  0.08907  0  3.8865  0  0  0.093318  0  3.900302  0  0  0.063419  0.086212  0  3.877373  0
C  C27  1  0.57443022  0.12692467  0.05334625  1  0  0.11176  0  3.634534  0  0  0.088908  0  3.886321  0  0  0.09316  0  3.900125  0  0  0.063332  0.086045  0  3.87722  0
C  C28  1  0.92559155  0.62693234  0.94664830  1  0  0.112118  0  3.634346  0  0  0.089225  0  3.886186  0  0  0.093475  0  3.899988  0  0  0.063602  0.086342  0  3.877054  0
C  C29  1  0.92555601  0.12690928  0.55332931  1  0  0.111604  0  3.63421  0  0  0.088762  0  3.886011  0  0  0.092986  0  3.899803  0  0  0.063347  0.085904  0  3.876914  0
C  C30  1  0.57440684  0.62691385  0.44666020  1  0  0.111855  0  3.634644  0  0  0.089064  0  3.886501  0  0  0.093309  0  3.900317  0  0  0.063425  0.086223  0  3.877383  0
C  C31  1  0.42554476  0.87308262  0.94666532  1  0  0.111594  0  3.634218  0  0  0.08868  0  3.885974  0  0  0.092928  0  3.899786  0  0  0.063335  0.085821  0  3.876866  0
C  C32  1  0.88023608  0.60467858  0.04300215  1  0  0.11636  0  3.624842  0  0  0.094073  0  3.874149  0  0  0.098249  0  3.887754  0  0  0.063608  0.091274  0  3.865103  0
C  C33  1  0.88023325  0.10466735  0.45696834  1  0  0.116729  0  3.625156  0  0  0.094386  0  3.874465  0  0  0.09857  0  3.888057  0  0  0.063751  0.091582  0  3.865434  0
C  C34  1  0.61977196  0.60467652  0.54301346  1  0  0.116695  0  3.625085  0  0  0.094323  0  3.874416  0  0  0.098514  0  3.888009  0  0  0.063704  0.091519  0  3.865358  0
C  C35  1  0.38023664  0.89533158  0.04302832  1  0  0.116627  0  3.625345  0  0  0.094372  0  3.874582  0  0  0.098556  0  3.888183  0  0  0.063766  0.091564  0  3.865554  0
C  C36  1  0.11976434  0.39532089  0.95698352  1  0  0.116575  0  3.62522  0  0  0.094267  0  3.874554  0  0  0.098455  0  3.888154  0  0  0.063675  0.091468  0  3.865499  0
C  C37  1  0.11974440  0.89533082  0.54302668  1  0  0.116781  0  3.625457  0  0  0.094433  0  3.874738  0  0  0.098619  0  3.888319  0  0  0.063803  0.091629  0  3.865695  0
C  C38  1  0.38024318  0.39531514  0.45698372  1  0  0.116689  0  3.625119  0  0  0.094265  0  3.874511  0  0  0.09846  0  3.888097  0  0  0.063698  0.091458  0  3.86546  0
C  C39  1  0.61975441  0.10468223  0.95698684  1  0  0.116509  0  3.625123  0  0  0.094198  0  3.874394  0  0  0.098367  0  3.887995  0  0  0.06372  0.091399  0  3.86535  0
N  N40  1  0.95534255  0.47854852  0.09626354  1  0  -0.306432  0  3.226561  0  0  -0.263888  0  3.488625  0  0  -0.277211  0  3.507629  0  0  -0.314715  -0.255014  0  3.475832  0
N  N41  1  0.95533017  0.97853800  0.40372380  1  0  -0.306466  0  3.227069  0  0  -0.263859  0  3.489134  0  0  -0.277183  0  3.508144  0  0  -0.314804  -0.255006  0  3.476349  0
N  N42  1  0.54467909  0.47854097  0.59626840  1  0  -0.30671  0  3.227031  0  0  -0.264098  0  3.489026  0  0  -0.277427  0  3.508025  0  0  -0.314754  -0.25522  0  3.476232  0
N  N43  1  0.45532434  0.02147163  0.09627500  1  0  -0.306571  0  3.227071  0  0  -0.263996  0  3.489123  0  0  -0.277327  0  3.508131  0  0  -0.314792  -0.25514  0  3.476346  0
N  N44  1  0.04468866  0.52147310  0.90373220  1  0  -0.306592  0  3.227008  0  0  -0.2641  0  3.489161  0  0  -0.277428  0  3.508165  0  0  -0.314811  -0.255228  0  3.476384  0
N  N45  1  0.04466623  0.02147451  0.59626691  1  0  -0.306491  0  3.227035  0  0  -0.263913  0  3.489175  0  0  -0.27724  0  3.508194  0  0  -0.314806  -0.255051  0  3.476385  0
N  N46  1  0.45530928  0.52146501  0.40373382  1  0  -0.306628  0  3.227096  0  0  -0.264027  0  3.489156  0  0  -0.277362  0  3.508161  0  0  -0.314735  -0.255153  0  3.476361  0
N  N47  1  0.54464528  0.97854609  0.90374088  1  0  -0.306288  0  3.226731  0  0  -0.263705  0  3.488835  0  0  -0.277032  0  3.507848  0  0  -0.314681  -0.254841  0  3.476041  0
O  O48  1  0.93335545  0.23772593  0.25432588  1  0  -0.848186  0  1.780209  0  0  -0.858423  0  2.088776  0  0  -0.899153  0  2.082298  0  0  -0.566526  -0.831379  0  2.09274  0
O  O49  1  0.93392914  0.73770783  0.24567691  1  0  -0.848307  0  1.780548  0  0  -0.85866  0  2.089307  0  0  -0.899353  0  2.082761  0  0  -0.566745  -0.831625  0  2.093289  0
O  O50  1  0.56672435  0.23771938  0.75431808  1  0  -0.848174  0  1.78037  0  0  -0.858412  0  2.088919  0  0  -0.899122  0  2.082429  0  0  -0.566597  -0.831435  0  2.093019  0
O  O51  1  0.43393293  0.26228124  0.25432303  1  0  -0.848378  0  1.780263  0  0  -0.858798  0  2.088984  0  0  -0.899487  0  2.082433  0  0  -0.566786  -0.83175  0  2.092952  0
O  O52  1  0.06672397  0.76227354  0.74566842  1  0  -0.848276  0  1.780072  0  0  -0.858549  0  2.088635  0  0  -0.899269  0  2.082144  0  0  -0.566605  -0.831535  0  2.092677  0
O  O53  1  0.06600165  0.26228513  0.75432603  1  0  -0.84832  0  1.780515  0  0  -0.858735  0  2.089403  0  0  -0.899344  0  2.082694  0  0  -0.566749  -0.831687  0  2.09336  0
O  O54  1  0.43335373  0.76229181  0.24569133  1  0  -0.848257  0  1.780264  0  0  -0.85863  0  2.089032  0  0  -0.899271  0  2.082374  0  0  -0.566661  -0.831589  0  2.093007  0
O  O55  1  0.56600053  0.73770260  0.74567775  1  0  -0.848414  0  1.780232  0  0  -0.858867  0  2.089097  0  0  -0.899501  0  2.082427  0  0  -0.56678  -0.831801  0  2.093036  0
O  O56  1  0.68142170  0.49908919  0.24264148  1  0  -0.890062  0  1.824776  0  0  -0.898496  0  2.135936  0  0  -0.942656  0  2.129723  0  0  -0.589031  -0.866841  0  2.138876  0
O  O57  1  0.68137351  0.99854127  0.25735610  1  0  -0.890029  0  1.824069  0  0  -0.898634  0  2.135801  0  0  -0.942843  0  2.129649  0  0  -0.589068  -0.866846  0  2.138447  0
O  O58  1  0.81858396  0.49914954  0.74263670  1  0  -0.890219  0  1.824563  0  0  -0.898675  0  2.13572  0  0  -0.942858  0  2.12953  0  0  -0.589075  -0.866983  0  2.138601  0
O  O59  1  0.18138030  0.00145518  0.24265953  1  0  -0.889985  0  1.824459  0  0  -0.898608  0  2.136269  0  0  -0.942816  0  2.130116  0  0  -0.58915  -0.866828  0  2.138928  0
O  O60  1  0.31857068  0.50085165  0.75735786  1  0  -0.890109  0  1.824864  0  0  -0.898497  0  2.135928  0  0  -0.942675  0  2.129732  0  0  -0.58899  -0.866814  0  2.138821  0
O  O61  1  0.31865101  0.00152335  0.74264036  1  0  -0.889889  0  1.823981  0  0  -0.898527  0  2.135826  0  0  -0.942746  0  2.129672  0  0  -0.588999  -0.866742  0  2.138492  0
O  O62  1  0.18141111  0.50090205  0.25736552  1  0  -0.890092  0  1.824599  0  0  -0.898512  0  2.135683  0  0  -0.942685  0  2.129494  0  0  -0.588962  -0.866836  0  2.138584  0
O  O63  1  0.81862548  0.99847263  0.75735491  1  0  -0.889875  0  1.824398  0  0  -0.898455  0  2.136152  0  0  -0.9427  0  2.130066  0  0  -0.589014  -0.866697  0  2.138869  0
O  O64  1  0.91488567  0.48580575  0.39543821  1  0  -0.648684  0  1.444023  0  0  -0.652168  0  1.688833  0  0  -0.678494  0  1.681804  0  0  -0.494855  -0.634855  0  1.693697  0
O  O65  1  0.91484739  0.98581803  0.10455825  1  0  -0.648742  0  1.444202  0  0  -0.652065  0  1.689046  0  0  -0.678387  0  1.682009  0  0  -0.494758  -0.634787  0  1.693916  0
O  O66  1  0.58512185  0.48579765  0.89544156  1  0  -0.648745  0  1.444141  0  0  -0.652222  0  1.688926  0  0  -0.678553  0  1.681894  0  0  -0.494803  -0.634917  0  1.693802  0
O  O67  1  0.41486597  0.01419214  0.39544206  1  0  -0.648765  0  1.444261  0  0  -0.652134  0  1.689069  0  0  -0.678456  0  1.68203  0  0  -0.494794  -0.634844  0  1.693927  0
O  O68  1  0.08511341  0.51418460  0.60455897  1  0  -0.648662  0  1.444141  0  0  -0.652106  0  1.688886  0  0  -0.678436  0  1.681858  0  0  -0.494827  -0.634789  0  1.693749  0
O  O69  1  0.08517445  0.01418926  0.89543677  1  0  -0.648638  0  1.444257  0  0  -0.651987  0  1.689122  0  0  -0.67831  0  1.682087  0  0  -0.494723  -0.634709  0  1.693998  0
O  O70  1  0.41487187  0.51419140  0.10456281  1  0  -0.648747  0  1.444061  0  0  -0.652163  0  1.688765  0  0  -0.67849  0  1.681729  0  0  -0.494801  -0.634851  0  1.693636  0
O  O71  1  0.58516257  0.98579299  0.60456232  1  0  -0.648747  0  1.444204  0  0  -0.652126  0  1.689056  0  0  -0.678448  0  1.682018  0  0  -0.494811  -0.634835  0  1.693927  0
