# generated using pymatgen
data_Cu2H5C7N6
_symmetry_space_group_name_H-M   'P 1'
_cell_length_a   7.91670318
_cell_length_b   8.15183111
_cell_length_c   8.15181985
_cell_angle_alpha   100.64353347
_cell_angle_beta   109.23684084
_cell_angle_gamma   109.23704911
_symmetry_Int_Tables_number   1
_chemical_formula_structural   Cu2H5C7N6
_chemical_formula_sum   'Cu4 H10 C14 N12'
_cell_volume   442.87264021
_cell_formula_units_Z   2
loop_
 _symmetry_equiv_pos_site_id
 _symmetry_equiv_pos_as_xyz
  1  'x, y, z'
loop_
 _atom_site_type_symbol
 _atom_site_label
 _atom_site_symmetry_multiplicity
 _atom_site_fract_x
 _atom_site_fract_y
 _atom_site_fract_z
 _atom_site_occupancy
 _atom_site_hle17_bader_spin_density
 _atom_site_hle17_ddec_charge
 _atom_site_hle17_ddec_spin_density
 _atom_site_hle17_ddec_sum_bond_order
 _atom_site_hle17_magmom
 _atom_site_hse06_10hf_bader_spin_density
 _atom_site_hse06_10hf_ddec_charge
 _atom_site_hse06_10hf_ddec_spin_density
 _atom_site_hse06_10hf_ddec_sum_bond_order
 _atom_site_hse06_10hf_magmom
 _atom_site_hse06_bader_spin_density
 _atom_site_hse06_ddec_charge
 _atom_site_hse06_ddec_spin_density
 _atom_site_hse06_ddec_sum_bond_order
 _atom_site_hse06_magmom
 _atom_site_pbe_bader_spin_density
 _atom_site_pbe_cm5_charge
 _atom_site_pbe_ddec_charge
 _atom_site_pbe_ddec_spin_density
 _atom_site_pbe_ddec_sum_bond_order
 _atom_site_pbe_magmom
Cu  Cu0  1  0.01818881  0.45575160  0.21207008  1  0  0.460211  0  2.047769  0  0  0.323263  0  2.556653  0  0  0.312451  0  2.52398  0  0  0.629861  0.332732  0  2.576338  0
Cu  Cu1  1  0.48179531  0.78792094  0.54425123  1  0  0.4602  0  2.047425  0  0  0.323302  0  2.556218  0  0  0.312478  0  2.523479  0  0  0.629836  0.332702  0  2.57607  0
Cu  Cu2  1  0.98180940  0.54424317  0.78792671  1  0  0.460123  0  2.047762  0  0  0.323196  0  2.556692  0  0  0.312336  0  2.523984  0  0  0.629848  0.332674  0  2.576363  0
Cu  Cu3  1  0.51820224  0.21207527  0.45574679  1  0  0.460157  0  2.047516  0  0  0.323256  0  2.556333  0  0  0.312413  0  2.523591  0  0  0.629843  0.332663  0  2.57618  0
H  H4  1  0.24999922  0.33978748  0.66022251  1  0  0.087019  0  0.973933  0  0  0.09489  0  1.040856  0  0  0.096396  0  1.04218  0  0  0.092072  0.092503  0  1.042888  0
H  H5  1  0.75000295  0.66022124  0.33978403  1  0  0.087041  0  0.973904  0  0  0.094914  0  1.040818  0  0  0.096421  0  1.042141  0  0  0.092105  0.092529  0  1.042849  0
H  H6  1  0.56103276  0.40322538  0.92387651  1  0  0.08881  0  0.965925  0  0  0.09823  0  1.028163  0  0  0.100646  0  1.028062  0  0  0.097342  0.09631  0  1.028619  0
H  H7  1  0.93897045  0.07612781  0.59677688  1  0  0.088798  0  0.96588  0  0  0.098217  0  1.028117  0  0  0.100632  0  1.028014  0  0  0.097328  0.096297  0  1.028579  0
H  H8  1  0.43897000  0.59677349  0.07612741  1  0  0.08879  0  0.965844  0  0  0.098222  0  1.028072  0  0  0.100637  0  1.02797  0  0  0.097316  0.096302  0  1.028529  0
H  H9  1  0.06102914  0.92388098  0.40322633  1  0  0.088814  0  0.96602  0  0  0.098242  0  1.028231  0  0  0.100656  0  1.028129  0  0  0.097331  0.096322  0  1.028693  0
H  H10  1  0.56020870  0.21122869  0.12590346  1  0  0.084949  0  0.970041  0  0  0.089441  0  1.047935  0  0  0.094893  0  1.042245  0  0  0.092365  0.084576  0  1.053618  0
H  H11  1  0.93979310  0.87409889  0.78877087  1  0  0.08488  0  0.970063  0  0  0.089376  0  1.04794  0  0  0.094824  0  1.042257  0  0  0.092343  0.084511  0  1.053623  0
H  H12  1  0.43978884  0.78876471  0.87409288  1  0  0.084886  0  0.970038  0  0  0.089375  0  1.047929  0  0  0.094825  0  1.042243  0  0  0.092351  0.08451  0  1.05361  0
H  H13  1  0.06020322  0.12590578  0.21122811  1  0  0.084957  0  0.970095  0  0  0.089451  0  1.047969  0  0  0.0949  0  1.042284  0  0  0.092379  0.084587  0  1.053652  0
C  C14  1  0.25000153  0.25291653  0.74708770  1  0  -0.078508  0  3.743394  0  0  -0.094187  0  4.000055  0  0  -0.092248  0  4.016631  0  0  -0.09691  -0.097398  0  3.99348  0
C  C15  1  0.75000138  0.74709068  0.25291394  1  0  -0.07851  0  3.743424  0  0  -0.094191  0  4.000076  0  0  -0.09225  0  4.016651  0  0  -0.09695  -0.097402  0  3.993502  0
C  C16  1  0.42412553  0.28941462  0.89588189  1  0  -0.058606  0  3.773108  0  0  -0.070839  0  4.018188  0  0  -0.073887  0  4.040472  0  0  -0.096528  -0.06948  0  4.00472  0
C  C17  1  0.07587240  0.10412351  0.71058863  1  0  -0.058603  0  3.773031  0  0  -0.070842  0  4.018111  0  0  -0.073885  0  4.040384  0  0  -0.0965  -0.069487  0  4.004649  0
C  C18  1  0.57587666  0.71058844  0.10412005  1  0  -0.058609  0  3.773055  0  0  -0.070844  0  4.01813  0  0  -0.073892  0  4.040414  0  0  -0.096495  -0.069488  0  4.004664  0
C  C19  1  0.92413035  0.89588102  0.28941989  1  0  -0.058626  0  3.773066  0  0  -0.070862  0  4.018142  0  0  -0.073904  0  4.040415  0  0  -0.096485  -0.069505  0  4.004681  0
C  C20  1  0.42398683  0.18124806  0.00944852  1  0  -0.100252  0  3.732373  0  0  -0.120699  0  3.9778  0  0  -0.121853  0  3.996608  0  0  -0.096023  -0.120118  0  3.96643  0
C  C21  1  0.07601573  0.99055189  0.81875510  1  0  -0.100131  0  3.732214  0  0  -0.120577  0  3.977644  0  0  -0.12173  0  3.996452  0  0  -0.095981  -0.120004  0  3.966286  0
C  C22  1  0.57601605  0.81875353  0.99055097  1  0  -0.100115  0  3.732394  0  0  -0.120568  0  3.977841  0  0  -0.121723  0  3.996649  0  0  -0.09597  -0.119984  0  3.966466  0
C  C23  1  0.92398785  0.00945669  0.18124699  1  0  -0.10018  0  3.732089  0  0  -0.120618  0  3.977485  0  0  -0.121773  0  3.996296  0  0  -0.096031  -0.120047  0  3.966135  0
C  C24  1  0.25000438  0.02915948  0.97083889  1  0  -0.014726  0  3.823671  0  0  0.00723  0  4.047401  0  0  0.005038  0  4.070105  0  0  -0.016342  0.008572  0  4.032196  0
C  C25  1  0.74999250  0.97083536  0.02915869  1  0  -0.014767  0  3.823693  0  0  0.007186  0  4.047406  0  0  0.005003  0  4.07012  0  0  -0.016365  0.008528  0  4.032202  0
C  C26  1  0.24999942  0.91342993  0.08656544  1  0  0.28218  0  3.801053  0  0  0.262225  0  4.048036  0  0  0.271607  0  4.065924  0  0  0.216511  0.254118  0  4.035196  0
C  C27  1  0.75000344  0.08657168  0.91343527  1  0  0.282139  0  3.801055  0  0  0.26224  0  4.047962  0  0  0.271588  0  4.065894  0  0  0.216479  0.254128  0  4.035119  0
N  N28  1  0.01880909  0.48113140  0.43776141  1  0  -0.202595  0  3.243143  0  0  -0.153319  0  3.611595  0  0  -0.151403  0  3.614109  0  0  -0.250285  -0.153989  0  3.606683  0
N  N29  1  0.48119965  0.56222404  0.51886040  1  0  -0.202503  0  3.243907  0  0  -0.153147  0  3.612263  0  0  -0.151237  0  3.614689  0  0  -0.250144  -0.153914  0  3.607548  0
N  N30  1  0.98119373  0.51886177  0.56223548  1  0  -0.202566  0  3.243094  0  0  -0.153268  0  3.611535  0  0  -0.151337  0  3.614023  0  0  -0.250176  -0.153942  0  3.606619  0
N  N31  1  0.51879655  0.43776943  0.48113672  1  0  -0.202243  0  3.243878  0  0  -0.152848  0  3.612183  0  0  -0.150928  0  3.614605  0  0  -0.249985  -0.153619  0  3.607465  0
N  N32  1  0.17779851  0.67674673  0.17887221  1  0  -0.111014  0  3.267955  0  0  -0.062741  0  3.592117  0  0  -0.056042  0  3.587255  0  0  -0.18599  -0.066857  0  3.594046  0
N  N33  1  0.32219734  0.82111554  0.32324429  1  0  -0.110776  0  3.26781  0  0  -0.062481  0  3.5919  0  0  -0.055783  0  3.587029  0  0  -0.185921  -0.066582  0  3.593844  0
N  N34  1  0.82220107  0.32325077  0.82112426  1  0  -0.110882  0  3.267758  0  0  -0.062634  0  3.591935  0  0  -0.05592  0  3.587042  0  0  -0.185982  -0.066742  0  3.593854  0
N  N35  1  0.67780154  0.17887778  0.67675127  1  0  -0.110873  0  3.267728  0  0  -0.062606  0  3.591879  0  0  -0.055905  0  3.586991  0  0  -0.185958  -0.066705  0  3.59382  0
N  N36  1  0.13409913  0.73117275  0.02795033  1  0  -0.299633  0  3.284737  0  0  -0.238671  0  3.601565  0  0  -0.245425  0  3.60391  0  0  -0.288569  -0.23225  0  3.597692  0
N  N37  1  0.36590110  0.97204198  0.26882308  1  0  -0.299778  0  3.28484  0  0  -0.238787  0  3.601651  0  0  -0.245564  0  3.604007  0  0  -0.288574  -0.232372  0  3.597804  0
N  N38  1  0.86590370  0.26882606  0.97204992  1  0  -0.299752  0  3.284814  0  0  -0.238774  0  3.601589  0  0  -0.245535  0  3.603971  0  0  -0.28859  -0.23235  0  3.597713  0
N  N39  1  0.63409908  0.02795413  0.73117583  1  0  -0.299707  0  3.2847  0  0  -0.238751  0  3.601494  0  0  -0.245519  0  3.603863  0  0  -0.288556  -0.232329  0  3.597639  0
