# generated using pymatgen
data_HgH9C12Br2N3
_symmetry_space_group_name_H-M   'P 1'
_cell_length_a   6.97246686
_cell_length_b   13.55672594
_cell_length_c   14.21231629
_cell_angle_alpha   89.99954349
_cell_angle_beta   90.00007820
_cell_angle_gamma   89.99950410
_symmetry_Int_Tables_number   1
_chemical_formula_structural   HgH9C12Br2N3
_chemical_formula_sum   'Hg4 H36 C48 Br8 N12'
_cell_volume   1343.40245970
_cell_formula_units_Z   4
loop_
 _symmetry_equiv_pos_site_id
 _symmetry_equiv_pos_as_xyz
  1  'x, y, z'
loop_
 _atom_site_type_symbol
 _atom_site_label
 _atom_site_symmetry_multiplicity
 _atom_site_fract_x
 _atom_site_fract_y
 _atom_site_fract_z
 _atom_site_occupancy
 _atom_site_hle17_bader_spin_density
 _atom_site_hle17_ddec_charge
 _atom_site_hle17_ddec_spin_density
 _atom_site_hle17_ddec_sum_bond_order
 _atom_site_hle17_magmom
 _atom_site_hse06_10hf_bader_spin_density
 _atom_site_hse06_10hf_ddec_charge
 _atom_site_hse06_10hf_ddec_spin_density
 _atom_site_hse06_10hf_ddec_sum_bond_order
 _atom_site_hse06_10hf_magmom
 _atom_site_hse06_bader_spin_density
 _atom_site_hse06_ddec_charge
 _atom_site_hse06_ddec_spin_density
 _atom_site_hse06_ddec_sum_bond_order
 _atom_site_hse06_magmom
 _atom_site_pbe_bader_spin_density
 _atom_site_pbe_cm5_charge
 _atom_site_pbe_ddec_charge
 _atom_site_pbe_ddec_spin_density
 _atom_site_pbe_ddec_sum_bond_order
 _atom_site_pbe_magmom
Hg  Hg0  1  0.55784289  0.40859881  0.54586393  1  0  0.672879  0  2.079687  0  0  0.51957  0  2.585107  0  0  0.567589  0  2.552991  0  0  0.467738  0.487127  0  2.606342  0
Hg  Hg1  1  0.44215998  0.59139678  0.04586518  1  0  0.672929  0  2.079531  0  0  0.519647  0  2.584897  0  0  0.567664  0  2.552786  0  0  0.467789  0.487204  0  2.60613  0
Hg  Hg2  1  0.05784317  0.09139945  0.54586355  1  0  0.6729  0  2.079588  0  0  0.519623  0  2.58496  0  0  0.567641  0  2.552847  0  0  0.467773  0.487179  0  2.606199  0
Hg  Hg3  1  0.94215396  0.90860131  0.04586345  1  0  0.672882  0  2.079647  0  0  0.519611  0  2.585013  0  0  0.567629  0  2.5529  0  0  0.467783  0.487169  0  2.606248  0
H  H4  1  0.09640696  0.34712128  0.51201026  1  0  0.090788  0  0.976024  0  0  0.094296  0  1.052206  0  0  0.097568  0  1.047245  0  0  0.116728  0.091815  0  1.055869  0
H  H5  1  0.90359869  0.65288050  0.01201348  1  0  0.090821  0  0.976096  0  0  0.094301  0  1.052278  0  0  0.097573  0  1.047316  0  0  0.116734  0.091821  0  1.055938  0
H  H6  1  0.59639806  0.15287857  0.51201047  1  0  0.09078  0  0.976156  0  0  0.094302  0  1.052304  0  0  0.097573  0  1.047344  0  0  0.116738  0.091821  0  1.055967  0
H  H7  1  0.40358751  0.84711435  0.01201327  1  0  0.090766  0  0.976191  0  0  0.094299  0  1.05237  0  0  0.097572  0  1.047407  0  0  0.116732  0.09182  0  1.056034  0
H  H8  1  0.17011347  0.04036719  0.31514699  1  0  0.105525  0  0.962473  0  0  0.111275  0  1.032795  0  0  0.114466  0  1.031171  0  0  0.092434  0.108956  0  1.034086  0
H  H9  1  0.82989441  0.95963573  0.81514739  1  0  0.105537  0  0.962357  0  0  0.111292  0  1.032688  0  0  0.11447  0  1.031075  0  0  0.092437  0.108969  0  1.033983  0
H  H10  1  0.67011089  0.45963471  0.31514628  1  0  0.105548  0  0.962374  0  0  0.111319  0  1.032682  0  0  0.114485  0  1.031081  0  0  0.092446  0.108995  0  1.033977  0
H  H11  1  0.32989268  0.54036231  0.81514810  1  0  0.105519  0  0.962342  0  0  0.111301  0  1.032642  0  0  0.11446  0  1.031047  0  0  0.092435  0.108963  0  1.033956  0
H  H12  1  0.27905017  0.05626898  0.14940410  1  0  0.079448  0  0.99356  0  0  0.084394  0  1.068848  0  0  0.087246  0  1.067225  0  0  0.080114  0.082294  0  1.070167  0
H  H13  1  0.72096157  0.94373681  0.64940384  1  0  0.0795  0  0.993593  0  0  0.08446  0  1.06887  0  0  0.087311  0  1.067244  0  0  0.080138  0.08236  0  1.07019  0
H  H14  1  0.77904499  0.44373383  0.14940352  1  0  0.07944  0  0.993572  0  0  0.084381  0  1.068888  0  0  0.087233  0  1.067266  0  0  0.080112  0.082281  0  1.070205  0
H  H15  1  0.22095815  0.55626532  0.64940443  1  0  0.07941  0  0.993615  0  0  0.084392  0  1.068877  0  0  0.087243  0  1.067254  0  0  0.080115  0.082291  0  1.070195  0
H  H16  1  0.35757329  0.21902741  0.08089885  1  0  0.083374  0  0.955334  0  0  0.095045  0  1.016275  0  0  0.097471  0  1.015751  0  0  0.092791  0.093282  0  1.016757  0
H  H17  1  0.64243110  0.78097821  0.58089976  1  0  0.083356  0  0.955288  0  0  0.095056  0  1.016193  0  0  0.097483  0  1.01567  0  0  0.092778  0.093303  0  1.016667  0
H  H18  1  0.85756941  0.28097488  0.08089738  1  0  0.083331  0  0.955311  0  0  0.095007  0  1.016241  0  0  0.097433  0  1.015718  0  0  0.092756  0.093245  0  1.016723  0
H  H19  1  0.14243068  0.71902558  0.58089912  1  0  0.083364  0  0.955329  0  0  0.095056  0  1.016241  0  0  0.097483  0  1.015716  0  0  0.092782  0.093289  0  1.016728  0
H  H20  1  0.32024530  0.37314249  0.17401045  1  0  0.095596  0  0.992464  0  0  0.102642  0  1.063165  0  0  0.105306  0  1.062023  0  0  0.089287  0.100692  0  1.064094  0
H  H21  1  0.67975360  0.62686383  0.67401397  1  0  0.095658  0  0.992532  0  0  0.102638  0  1.06327  0  0  0.105298  0  1.062141  0  0  0.089269  0.100688  0  1.0642  0
H  H22  1  0.82024257  0.12685993  0.17401226  1  0  0.095607  0  0.99243  0  0  0.102655  0  1.06312  0  0  0.105316  0  1.061984  0  0  0.089292  0.100706  0  1.064049  0
H  H23  1  0.17975346  0.87313828  0.67401145  1  0  0.095631  0  0.992477  0  0  0.102628  0  1.063219  0  0  0.105293  0  1.062069  0  0  0.089285  0.100681  0  1.064151  0
H  H24  1  0.05655586  0.48333829  0.23793548  1  0  0.121689  0  0.973373  0  0  0.129283  0  1.03802  0  0  0.132614  0  1.037124  0  0  0.104967  0.126904  0  1.03881  0
H  H25  1  0.94344464  0.51666823  0.73793861  1  0  0.121695  0  0.973322  0  0  0.12925  0  1.038033  0  0  0.132582  0  1.037134  0  0  0.104964  0.12687  0  1.038822  0
H  H26  1  0.55656216  0.01666624  0.23793461  1  0  0.121689  0  0.973324  0  0  0.129269  0  1.037999  0  0  0.1326  0  1.037101  0  0  0.104967  0.12689  0  1.038788  0
H  H27  1  0.44344121  0.98333290  0.73794018  1  0  0.121716  0  0.973356  0  0  0.12927  0  1.038059  0  0  0.132602  0  1.03716  0  0  0.104964  0.126893  0  1.038851  0
H  H28  1  0.10162876  0.66681169  0.23890227  1  0  0.091283  0  0.981859  0  0  0.09847  0  1.04997  0  0  0.101465  0  1.047331  0  0  0.088174  0.096231  0  1.051997  0
H  H29  1  0.89836888  0.33319556  0.73890254  1  0  0.09117  0  0.982012  0  0  0.098363  0  1.050098  0  0  0.101358  0  1.047458  0  0  0.088143  0.096127  0  1.052119  0
H  H30  1  0.60163117  0.83319293  0.23890181  1  0  0.091232  0  0.981916  0  0  0.098419  0  1.050016  0  0  0.101413  0  1.047377  0  0  0.088168  0.09618  0  1.052041  0
H  H31  1  0.39837220  0.16680768  0.73890299  1  0  0.09122  0  0.981925  0  0  0.098422  0  1.050009  0  0  0.101416  0  1.047371  0  0  0.088158  0.096186  0  1.052031  0
H  H32  1  0.29557399  0.74350770  0.36885271  1  0  0.109038  0  0.941582  0  0  0.119641  0  0.998852  0  0  0.122827  0  0.9983  0  0  0.103981  0.117374  0  0.999398  0
H  H33  1  0.70442112  0.25649478  0.86885061  1  0  0.109068  0  0.941628  0  0  0.119647  0  0.998916  0  0  0.122831  0  0.998369  0  0  0.104012  0.11738  0  0.999464  0
H  H34  1  0.79557339  0.75649202  0.36885214  1  0  0.109053  0  0.941572  0  0  0.119659  0  0.99884  0  0  0.122844  0  0.99829  0  0  0.103992  0.117391  0  0.999385  0
H  H35  1  0.20442028  0.24350677  0.86885260  1  0  0.109056  0  0.941627  0  0  0.119626  0  0.998931  0  0  0.12281  0  0.998383  0  0  0.103993  0.117363  0  0.999469  0
H  H36  1  0.44446643  0.63200649  0.48951473  1  0  0.072229  0  0.946288  0  0  0.081514  0  1.0107  0  0  0.083733  0  1.008724  0  0  0.107977  0.079872  0  1.012177  0
H  H37  1  0.55553759  0.36799350  0.98951661  1  0  0.07227  0  0.946318  0  0  0.081557  0  1.010709  0  0  0.083775  0  1.008735  0  0  0.108007  0.079918  0  1.012188  0
H  H38  1  0.94446396  0.86798787  0.48951683  1  0  0.072197  0  0.946261  0  0  0.08148  0  1.010678  0  0  0.083699  0  1.008702  0  0  0.107984  0.07984  0  1.012155  0
H  H39  1  0.05552859  0.13200622  0.98951451  1  0  0.072283  0  0.946194  0  0  0.081567  0  1.010599  0  0  0.083785  0  1.008627  0  0  0.108038  0.079926  0  1.012079  0
C  C40  1  0.13351027  0.31003729  0.44684159  1  0  0.214224  0  3.65543  0  0  0.147508  0  3.937687  0  0  0.165851  0  3.946942  0  0  0.151481  0.135555  0  3.931053  0
C  C41  1  0.86649651  0.68996601  0.94684476  1  0  0.214186  0  3.655257  0  0  0.147494  0  3.937516  0  0  0.165835  0  3.946772  0  0  0.151465  0.135541  0  3.93088  0
C  C42  1  0.63350648  0.18996367  0.44684292  1  0  0.214221  0  3.655465  0  0  0.147477  0  3.937716  0  0  0.165817  0  3.946977  0  0  0.151468  0.135525  0  3.931082  0
C  C43  1  0.36648739  0.81003077  0.94684553  1  0  0.214278  0  3.655106  0  0  0.147525  0  3.9374  0  0  0.165868  0  3.946655  0  0  0.151485  0.13557  0  3.930768  0
C  C44  1  0.18226425  0.19902780  0.33807299  1  0  0.140434  0  3.802915  0  0  0.13626  0  4.051545  0  0  0.140235  0  4.074293  0  0  0.079958  0.133477  0  4.036148  0
C  C45  1  0.81773795  0.80097567  0.83807669  1  0  0.140216  0  3.803062  0  0  0.136124  0  4.051623  0  0  0.140077  0  4.074397  0  0  0.079942  0.133341  0  4.036222  0
C  C46  1  0.68226433  0.30097239  0.33807559  1  0  0.140316  0  3.803025  0  0  0.136244  0  4.051606  0  0  0.140211  0  4.07436  0  0  0.080002  0.133461  0  4.036206  0
C  C47  1  0.31773786  0.69902223  0.83807549  1  0  0.140067  0  3.80342  0  0  0.135953  0  4.051924  0  0  0.139895  0  4.074709  0  0  0.079854  0.133171  0  4.036517  0
C  C48  1  0.20096560  0.11256167  0.28512558  1  0  -0.135631  0  3.730791  0  0  -0.156929  0  3.986259  0  0  -0.159476  0  4.005885  0  0  -0.100322  -0.155104  0  3.972949  0
C  C49  1  0.79903789  0.88744372  0.78512510  1  0  -0.135444  0  3.730625  0  0  -0.156751  0  3.986017  0  0  -0.159276  0  4.005652  0  0  -0.100272  -0.154924  0  3.972709  0
C  C50  1  0.70096567  0.38744108  0.28512542  1  0  -0.135581  0  3.73064  0  0  -0.15692  0  3.986074  0  0  -0.159439  0  4.005715  0  0  -0.100344  -0.155089  0  3.972762  0
C  C51  1  0.29903782  0.61255619  0.78512667  1  0  -0.135344  0  3.730818  0  0  -0.156679  0  3.986205  0  0  -0.159183  0  4.005852  0  0  -0.100226  -0.154839  0  3.972904  0
C  C52  1  0.26268674  0.12236370  0.19236729  1  0  -0.087345  0  3.793782  0  0  -0.099862  0  4.046326  0  0  -0.102703  0  4.069103  0  0  -0.105913  -0.097806  0  4.030778  0
C  C53  1  0.73732225  0.87763952  0.69236472  1  0  -0.087525  0  3.794023  0  0  -0.100064  0  4.046585  0  0  -0.102913  0  4.06938  0  0  -0.105964  -0.098006  0  4.031039  0
C  C54  1  0.76268554  0.37763735  0.19236579  1  0  -0.087367  0  3.793909  0  0  -0.099908  0  4.046476  0  0  -0.102747  0  4.069239  0  0  -0.105918  -0.097854  0  4.030929  0
C  C55  1  0.23732201  0.62236218  0.69236622  1  0  -0.087351  0  3.793839  0  0  -0.099902  0  4.046399  0  0  -0.102751  0  4.069187  0  0  -0.105913  -0.097846  0  4.030843  0
C  C56  1  0.30621426  0.21510592  0.15324947  1  0  -0.063018  0  3.775895  0  0  -0.078781  0  4.027702  0  0  -0.080907  0  4.050708  0  0  -0.096491  -0.077241  0  4.01203  0
C  C57  1  0.69378889  0.78489910  0.65325039  1  0  -0.062954  0  3.77588  0  0  -0.078747  0  4.027702  0  0  -0.080871  0  4.050698  0  0  -0.096489  -0.077217  0  4.012031  0
C  C58  1  0.80621175  0.28489673  0.15325079  1  0  -0.062942  0  3.775861  0  0  -0.078706  0  4.027654  0  0  -0.08083  0  4.050661  0  0  -0.096441  -0.077166  0  4.011983  0
C  C59  1  0.19378853  0.71510239  0.65325048  1  0  -0.063051  0  3.775942  0  0  -0.078842  0  4.02778  0  0  -0.080968  0  4.05078  0  0  -0.096519  -0.077299  0  4.012111  0
C  C60  1  0.28768501  0.30175720  0.20490785  1  0  -0.136032  0  3.772455  0  0  -0.154173  0  4.019575  0  0  -0.15722  0  4.041043  0  0  -0.095813  -0.152028  0  4.005046  0
C  C61  1  0.71231254  0.69824665  0.70491015  1  0  -0.136031  0  3.772472  0  0  -0.154093  0  4.019596  0  0  -0.157141  0  4.041055  0  0  -0.095741  -0.15195  0  4.005071  0
C  C62  1  0.78768252  0.19824289  0.20490842  1  0  -0.136001  0  3.772323  0  0  -0.154077  0  4.019476  0  0  -0.157121  0  4.040936  0  0  -0.095787  -0.151934  0  4.004949  0
C  C63  1  0.21231359  0.80175358  0.70490958  1  0  -0.135945  0  3.772336  0  0  -0.154062  0  4.01942  0  0  -0.157105  0  4.040886  0  0  -0.095744  -0.151924  0  4.004899  0
C  C64  1  0.22438481  0.29179880  0.29733615  1  0  0.118121  0  3.744377  0  0  0.112307  0  3.980746  0  0  0.116225  0  4.002276  0  0  0.094246  0.109703  0  3.966119  0
C  C65  1  0.77561442  0.70820575  0.79733912  1  0  0.118106  0  3.744364  0  0  0.112234  0  3.980741  0  0  0.116158  0  4.002274  0  0  0.094162  0.109629  0  3.966112  0
C  C66  1  0.72438788  0.20820375  0.29733735  1  0  0.118107  0  3.744261  0  0  0.112097  0  3.980836  0  0  0.116014  0  4.002372  0  0  0.094139  0.109493  0  3.966209  0
C  C67  1  0.27561134  0.79179416  0.79733933  1  0  0.118015  0  3.74437  0  0  0.112308  0  3.980616  0  0  0.116237  0  4.002152  0  0  0.094191  0.109704  0  3.965989  0
C  C68  1  0.22374235  0.46434608  0.36446389  1  0  0.355498  0  3.755828  0  0  0.330662  0  4.011354  0  0  0.344493  0  4.028582  0  0  0.224274  0.321415  0  3.999655  0
C  C69  1  0.77625991  0.53565643  0.86446747  1  0  0.35553  0  3.75566  0  0  0.330591  0  4.011359  0  0  0.34442  0  4.028593  0  0  0.224222  0.321344  0  3.999656  0
C  C70  1  0.72374116  0.03565370  0.36446499  1  0  0.355541  0  3.755778  0  0  0.3306  0  4.011444  0  0  0.344429  0  4.028675  0  0  0.224274  0.321354  0  3.999743  0
C  C71  1  0.27625107  0.96434217  0.86446777  1  0  0.35544  0  3.755785  0  0  0.330589  0  4.011422  0  0  0.344424  0  4.028643  0  0  0.224227  0.321344  0  3.999719  0
C  C72  1  0.14121433  0.51936501  0.29219535  1  0  -0.178708  0  3.692985  0  0  -0.196243  0  3.939762  0  0  -0.20433  0  3.959813  0  0  -0.081864  -0.191083  0  3.926434  0
C  C73  1  0.85879061  0.48063958  0.79219940  1  0  -0.178822  0  3.692832  0  0  -0.196336  0  3.939682  0  0  -0.204422  0  3.959729  0  0  -0.081947  -0.191174  0  3.926353  0
C  C74  1  0.64121571  0.98063751  0.29219589  1  0  -0.178831  0  3.692944  0  0  -0.196346  0  3.939757  0  0  -0.204433  0  3.959806  0  0  -0.081922  -0.191186  0  3.92643  0
C  C75  1  0.35878350  0.01936192  0.79219886  1  0  -0.17884  0  3.692985  0  0  -0.196343  0  3.939775  0  0  -0.20443  0  3.95982  0  0  -0.081918  -0.191189  0  3.926454  0
C  C76  1  0.16608847  0.62112994  0.29348400  1  0  0.00644  0  3.738926  0  0  -0.011128  0  3.985803  0  0  -0.007857  0  4.004737  0  0  -0.071154  -0.012931  0  3.972856  0
C  C77  1  0.83391075  0.37887538  0.79348528  1  0  0.006622  0  3.73887  0  0  -0.010899  0  3.985673  0  0  -0.007626  0  4.004604  0  0  -0.071026  -0.012705  0  3.972729  0
C  C78  1  0.66609155  0.87887247  0.29348460  1  0  0.00654  0  3.738971  0  0  -0.011  0  3.985815  0  0  -0.007727  0  4.004747  0  0  -0.071103  -0.012802  0  3.972868  0
C  C79  1  0.33390766  0.12112547  0.79348749  1  0  0.006587  0  3.738948  0  0  -0.010962  0  3.985781  0  0  -0.00769  0  4.004715  0  0  -0.071047  -0.012765  0  3.972837  0
C  C80  1  0.27303027  0.66402102  0.36570785  1  0  -0.118683  0  3.726912  0  0  -0.131181  0  3.973587  0  0  -0.138035  0  3.994663  0  0  -0.085039  -0.126828  0  3.959393  0
C  C81  1  0.72696914  0.33598074  0.86571079  1  0  -0.118699  0  3.727042  0  0  -0.131184  0  3.97366  0  0  -0.138037  0  3.994736  0  0  -0.085086  -0.126833  0  3.959473  0
C  C82  1  0.77302976  0.83597809  0.36570949  1  0  -0.118667  0  3.726889  0  0  -0.131187  0  3.973553  0  0  -0.138042  0  3.994629  0  0  -0.085022  -0.126832  0  3.959356  0
C  C83  1  0.22696820  0.16401851  0.86570986  1  0  -0.11868  0  3.727111  0  0  -0.131152  0  3.973737  0  0  -0.138004  0  3.994813  0  0  -0.08506  -0.126798  0  3.959545  0
C  C84  1  0.35426611  0.60268200  0.43335648  1  0  0.132562  0  3.729426  0  0  0.103898  0  3.981164  0  0  0.111152  0  3.999154  0  0  0.042411  0.099217  0  3.9689  0
C  C85  1  0.64573777  0.39731846  0.93335819  1  0  0.13247  0  3.729566  0  0  0.103838  0  3.981259  0  0  0.111092  0  3.999251  0  0  0.042378  0.099154  0  3.969  0
C  C86  1  0.85426314  0.89731544  0.43335765  1  0  0.13259  0  3.729435  0  0  0.103954  0  3.981148  0  0  0.111209  0  3.999138  0  0  0.042427  0.09927  0  3.968885  0
C  C87  1  0.14572783  0.10268133  0.93335773  1  0  0.132385  0  3.729459  0  0  0.10374  0  3.981173  0  0  0.110991  0  3.999166  0  0  0.042303  0.099057  0  3.96891  0
Br  Br88  1  0.84005620  0.52536395  0.52043775  1  0  -0.423384  0  0.992382  0  0  -0.366306  0  1.286883  0  0  -0.385453  0  1.270863  0  0  -0.225466  -0.353108  0  1.297705  0
Br  Br89  1  0.15994517  0.47463038  0.02042983  1  0  -0.423424  0  0.992329  0  0  -0.366349  0  1.286813  0  0  -0.385497  0  1.270793  0  0  -0.225491  -0.353151  0  1.297635  0
Br  Br90  1  0.34005148  0.97462693  0.52043306  1  0  -0.423412  0  0.992345  0  0  -0.36633  0  1.286809  0  0  -0.38548  0  1.270795  0  0  -0.225491  -0.35313  0  1.297635  0
Br  Br91  1  0.65992981  0.02535486  0.02040357  1  0  -0.423457  0  0.992393  0  0  -0.366371  0  1.286876  0  0  -0.385521  0  1.270861  0  0  -0.22552  -0.353173  0  1.297703  0
Br  Br92  1  0.33061406  0.35157174  0.67360960  1  0  -0.413964  0  1.037749  0  0  -0.354499  0  1.344375  0  0  -0.374169  0  1.326155  0  0  -0.208381  -0.340982  0  1.356792  0
Br  Br93  1  0.66939919  0.64842204  0.17360847  1  0  -0.414009  0  1.037712  0  0  -0.354527  0  1.344308  0  0  -0.374196  0  1.326086  0  0  -0.208392  -0.341009  0  1.356725  0
Br  Br94  1  0.83061383  0.14842940  0.67360985  1  0  -0.413958  0  1.037699  0  0  -0.354505  0  1.344324  0  0  -0.374171  0  1.326103  0  0  -0.20838  -0.340983  0  1.356743  0
Br  Br95  1  0.16938076  0.85157619  0.17361315  1  0  -0.413972  0  1.037712  0  0  -0.354498  0  1.344335  0  0  -0.374166  0  1.326114  0  0  -0.208375  -0.340978  0  1.356752  0
N  N96  1  0.12437655  0.21400756  0.43099935  1  0  -0.37671  0  3.195279  0  0  -0.308022  0  3.481128  0  0  -0.330887  0  3.499076  0  0  -0.331563  -0.29248  0  3.468437  0
N  N97  1  0.87562732  0.78599366  0.93100110  1  0  -0.376602  0  3.195293  0  0  -0.307961  0  3.481154  0  0  -0.330815  0  3.499107  0  0  -0.331536  -0.292419  0  3.468461  0
N  N98  1  0.62437402  0.28599285  0.43099996  1  0  -0.376652  0  3.195294  0  0  -0.30795  0  3.481095  0  0  -0.330811  0  3.499045  0  0  -0.331548  -0.292409  0  3.468405  0
N  N99  1  0.37562268  0.71400247  0.93100190  1  0  -0.376654  0  3.195099  0  0  -0.307957  0  3.480909  0  0  -0.330809  0  3.498864  0  0  -0.331529  -0.292419  0  3.468221  0
N  N100  1  0.19425868  0.36079310  0.36895545  1  0  -0.183216  0  3.52372  0  0  -0.10081  0  3.742822  0  0  -0.11886  0  3.764788  0  0  -0.223339  -0.088751  0  3.727656  0
N  N101  1  0.80574359  0.63920864  0.86895826  1  0  -0.183202  0  3.523333  0  0  -0.100721  0  3.742402  0  0  -0.118774  0  3.764373  0  0  -0.223301  -0.088662  0  3.727232  0
N  N102  1  0.69425718  0.13920751  0.36895787  1  0  -0.183113  0  3.523374  0  0  -0.100598  0  3.742482  0  0  -0.11865  0  3.764455  0  0  -0.223237  -0.088541  0  3.727315  0
N  N103  1  0.30573505  0.86078906  0.86895865  1  0  -0.182986  0  3.523029  0  0  -0.100719  0  3.742279  0  0  -0.118776  0  3.764252  0  0  -0.223345  -0.088661  0  3.727112  0
N  N104  1  0.33095954  0.50415605  0.43293467  1  0  -0.372462  0  3.186179  0  0  -0.308871  0  3.450852  0  0  -0.328378  0  3.468858  0  0  -0.311217  -0.295611  0  3.438374  0
N  N105  1  0.66904720  0.49584515  0.93293777  1  0  -0.372456  0  3.186123  0  0  -0.30889  0  3.450884  0  0  -0.328395  0  3.46889  0  0  -0.311203  -0.29563  0  3.438407  0
N  N106  1  0.83095636  0.99584150  0.43293580  1  0  -0.37251  0  3.18626  0  0  -0.30892  0  3.450988  0  0  -0.328425  0  3.468994  0  0  -0.3113  -0.29566  0  3.438514  0
N  N107  1  0.16903605  0.00415454  0.93293594  1  0  -0.37234  0  3.18616  0  0  -0.30877  0  3.450896  0  0  -0.328277  0  3.468903  0  0  -0.311181  -0.295512  0  3.438421  0
