# generated using pymatgen
data_V8Co2H32C48N8O23
_symmetry_space_group_name_H-M   'P 1'
_cell_length_a   8.87313485
_cell_length_b   11.89968939
_cell_length_c   13.06000000
_cell_angle_alpha   97.07996037
_cell_angle_beta   96.33759412
_cell_angle_gamma   102.95205129
_symmetry_Int_Tables_number   1
_chemical_formula_structural   V8Co2H32C48N8O23
_chemical_formula_sum   'V8 Co2 H32 C48 N8 O23'
_cell_volume   1319.99336515
_cell_formula_units_Z   1
loop_
 _symmetry_equiv_pos_site_id
 _symmetry_equiv_pos_as_xyz
  1  'x, y, z'
loop_
 _atom_site_type_symbol
 _atom_site_label
 _atom_site_symmetry_multiplicity
 _atom_site_fract_x
 _atom_site_fract_y
 _atom_site_fract_z
 _atom_site_occupancy
 _atom_site_hle17_bader_spin_density
 _atom_site_hle17_ddec_charge
 _atom_site_hle17_ddec_spin_density
 _atom_site_hle17_ddec_sum_bond_order
 _atom_site_hle17_magmom
 _atom_site_hse06_10hf_bader_spin_density
 _atom_site_hse06_10hf_ddec_charge
 _atom_site_hse06_10hf_ddec_spin_density
 _atom_site_hse06_10hf_ddec_sum_bond_order
 _atom_site_hse06_10hf_magmom
 _atom_site_hse06_bader_spin_density
 _atom_site_hse06_ddec_charge
 _atom_site_hse06_ddec_spin_density
 _atom_site_hse06_ddec_sum_bond_order
 _atom_site_hse06_magmom
 _atom_site_pbe_bader_charge
 _atom_site_pbe_bader_spin_density
 _atom_site_pbe_cm5_charge
 _atom_site_pbe_ddec_charge
 _atom_site_pbe_ddec_spin_density
 _atom_site_pbe_ddec_sum_bond_order
 _atom_site_pbe_magmom
V  V0  1  0.38337128  0.59871119  0.86795600  1  0  2.020804  0  3.008909  0  0  2.096447  0  3.385334  0  0  2.191881  0  3.361157  0  2.122658  0  1.47402  2.020211  0  3.422393  0
V  V1  1  0.61662455  0.40128899  0.13204547  1  0  2.020709  0  3.00902  0  0  2.096352  0  3.385456  0  0  2.191789  0  3.361274  0  2.122611  0  1.473988  2.020163  0  3.422443  0
V  V2  1  0.53399067  0.66838366  0.13064019  1  0  1.976619  0  2.984284  0  0  2.051434  0  3.37301  0  0  2.14705  0  3.350672  0  2.102062  0  1.455712  1.970553  0  3.417918  0
V  V3  1  0.46600516  0.33161652  0.86935898  1  0  1.976643  0  2.984296  0  0  2.051503  0  3.37296  0  0  2.147075  0  3.350683  0  2.101977  0  1.455741  1.97061  0  3.417883  0
V  V4  1  0.39024257  0.85165061  0.48958875  1  0  1.985365  0  3.04723  0  0  2.06117  0  3.437077  0  0  2.158313  0  3.41439  0  2.116313  0  1.452452  1.981588  0  3.477623  0
V  V5  1  0.60976119  0.14834957  0.51041179  1  0  1.985386  0  3.047219  0  0  2.061144  0  3.437157  0  0  2.158325  0  3.414397  0  2.116459  0  1.452429  1.981555  0  3.477708  0
V  V6  1  0.58103926  0.70719607  0.66960027  1  0  1.962504  0  3.04349  0  0  2.021042  0  3.451247  0  0  2.118734  0  3.415797  0  2.091072  0  1.425149  1.942298  0  3.499202  0
V  V7  1  0.41895884  0.29280062  0.33039868  1  0  1.96251  0  3.043646  0  0  2.021108  0  3.451304  0  0  2.11873  0  3.41596  0  2.090898  0  1.425187  1.942359  0  3.499271  0
Co  Co8  1  0.23261953  0.74689061  0.23927037  1  0  0.799904  0  2.942286  0  0  0.861113  0  3.330563  0  0  0.939962  0  3.275019  0  1.234478  0  0.835066  0.82011  0  3.364069  0
Co  Co9  1  0.76737998  0.25311044  0.76072994  1  0  0.799941  0  2.942233  0  0  0.861157  0  3.330501  0  0  0.940046  0  3.274898  0  1.234358  0  0.835051  0.820148  0  3.364011  0
H  H10  1  0.95137812  0.54828350  0.11942738  1  0  0.097146  0  0.982794  0  0  0.102922  0  1.048906  0  0  0.105219  0  1.04656  0  0.160369  0  0.122344  0.101257  0  1.050741  0
H  H11  1  0.04862111  0.45171668  0.88057282  1  0  0.097147  0  0.982787  0  0  0.102934  0  1.048878  0  0  0.105229  0  1.046532  0  0.160431  0  0.122348  0.101269  0  1.050714  0
H  H12  1  0.77656472  0.53660453  0.95578843  1  0  0.103318  0  0.961422  0  0  0.103749  0  1.039356  0  0  0.107517  0  1.037413  0  0.094631  0  0.113513  0.101525  0  1.039895  0
H  H13  1  0.22343452  0.46339565  0.04421329  1  0  0.103325  0  0.96142  0  0  0.103764  0  1.039342  0  0  0.107533  0  1.037398  0  0.094618  0  0.113511  0.101539  0  1.039888  0
H  H14  1  0.81672916  0.70544924  0.85287976  1  0  0.110778  0  0.975513  0  0  0.118172  0  1.042238  0  0  0.121488  0  1.039471  0  0.16176  0  0.113266  0.115898  0  1.043984  0
H  H15  1  0.18327092  0.29455007  0.14712117  1  0  0.110787  0  0.975478  0  0  0.118189  0  1.042196  0  0  0.121503  0  1.03943  0  0.161724  0  0.11327  0.115915  0  1.043941  0
H  H16  1  0.46096565  0.15191390  0.04548655  1  0  0.112953  0  0.954849  0  0  0.121449  0  1.018208  0  0  0.125065  0  1.014638  0  0.114854  0  0.114831  0.118977  0  1.020382  0
H  H17  1  0.53903471  0.84808628  0.95451373  1  0  0.112984  0  0.954839  0  0  0.121481  0  1.018193  0  0  0.1251  0  1.014615  0  0.114855  0  0.114851  0.119008  0  1.020365  0
H  H18  1  0.61757222  0.12543139  0.20865044  1  0  0.123596  0  0.931112  0  0  0.13571  0  0.982703  0  0  0.13906  0  0.981941  0  0.114682  0  0.121637  0.133379  0  0.98328  0
H  H19  1  0.38242985  0.87456705  0.79134747  1  0  0.123607  0  0.93109  0  0  0.135716  0  0.982679  0  0  0.139067  0  0.981917  0  0.114621  0  0.121649  0.133385  0  0.983257  0
H  H20  1  0.52313689  0.95002709  0.29492981  1  0  0.104251  0  0.93994  0  0  0.109588  0  1.006128  0  0  0.112688  0  1.001779  0  0.166445  0  0.133582  0.107422  0  1.008979  0
H  H21  1  0.47686319  0.04997222  0.70506959  1  0  0.104231  0  0.939945  0  0  0.109576  0  1.006137  0  0  0.112675  0  1.001788  0  0.166434  0  0.133579  0.10741  0  1.008988  0
H  H22  1  0.17857536  0.99985185  0.28267624  1  0  0.098381  0  0.952725  0  0  0.102893  0  1.021658  0  0  0.105125  0  1.019037  0  0.131675  0  0.124667  0.101257  0  1.023677  0
H  H23  1  0.82142047  0.00014833  0.71732217  1  0  0.098432  0  0.952706  0  0  0.102946  0  1.021614  0  0  0.105178  0  1.018991  0  0.13177  0  0.124673  0.101308  0  1.023639  0
H  H24  1  0.97202078  0.07252655  0.36328583  1  0  0.126224  0  0.930685  0  0  0.13888  0  0.981022  0  0  0.142329  0  0.979998  0  0.135189  0  0.11635  0.136421  0  0.982047  0
H  H25  1  0.02797647  0.92747450  0.63671354  1  0  0.126184  0  0.930748  0  0  0.138862  0  0.981068  0  0  0.14231  0  0.980046  0  0.135205  0  0.116373  0.136402  0  0.982094  0
H  H26  1  0.75939253  0.93526019  0.42597864  1  0  0.107442  0  0.944437  0  0  0.115097  0  1.010228  0  0  0.118133  0  1.007115  0  0.129091  0  0.11674  0.112955  0  1.012318  0
H  H27  1  0.24060529  0.06473912  0.57402288  1  0  0.107452  0  0.944435  0  0  0.11513  0  1.010196  0  0  0.118144  0  1.007111  0  0.129102  0  0.116741  0.112987  0  1.012291  0
H  H28  1  0.84649624  0.36995427  0.40330543  1  0  0.114046  0  0.924509  0  0  0.124661  0  0.983395  0  0  0.127981  0  0.980366  0  0.096431  0  0.11836  0.122257  0  0.98562  0
H  H29  1  0.15350554  0.63004679  0.59669582  1  0  0.114022  0  0.924559  0  0  0.124648  0  0.983433  0  0  0.127966  0  0.980406  0  0.096397  0  0.118339  0.122245  0  0.985654  0
H  H30  1  0.08840111  0.33752014  0.33239844  1  0  0.120605  0  0.960401  0  0  0.128997  0  1.020287  0  0  0.132562  0  1.019468  0  0.11732  0  0.113339  0.126563  0  1.020874  0
H  H31  1  0.91160039  0.66248004  0.66760268  1  0  0.12059  0  0.960431  0  0  0.128978  0  1.020323  0  0  0.132544  0  1.019501  0  0.117325  0  0.113331  0.126545  0  1.020908  0
H  H32  1  0.25882967  0.49890549  0.26315437  1  0  0.105753  0  0.939423  0  0  0.112485  0  1.001805  0  0  0.115251  0  0.997962  0  0.159712  0  0.131267  0.110454  0  1.004638  0
H  H33  1  0.74117239  0.50109644  0.73684776  1  0  0.105736  0  0.939438  0  0  0.112479  0  1.0018  0  0  0.115244  0  0.997958  0  0.159694  0  0.131257  0.110447  0  1.004635  0
H  H34  1  0.67387973  0.52004718  0.44546211  1  0  0.12622  0  0.950525  0  0  0.135632  0  1.010044  0  0  0.139413  0  1.007434  0  0.151737  0  0.113945  0.132954  0  1.012004  0
H  H35  1  0.32612064  0.47995300  0.55453970  1  0  0.126239  0  0.95052  0  0  0.135642  0  1.010045  0  0  0.139424  0  1.007432  0  0.151735  0  0.113947  0.132964  0  1.012006  0
H  H36  1  0.64225035  0.71879477  0.44988713  1  0  0.10912  0  0.978202  0  0  0.115167  0  1.047658  0  0  0.118672  0  1.045883  0  0.129401  0  0.111438  0.113003  0  1.04804  0
H  H37  1  0.35775002  0.28120541  0.55011391  1  0  0.109126  0  0.978169  0  0  0.115176  0  1.047625  0  0  0.11867  0  1.045877  0  0.129411  0  0.111436  0.113012  0  1.048008  0
H  H38  1  0.22217791  0.06470771  0.90153396  1  0  0.122771  0  0.966968  0  0  0.135198  0  1.024101  0  0  0.1387  0  1.022691  0  0.13848  0  0.106081  0.132552  0  1.025374  0
H  H39  1  0.77782132  0.93529247  0.09846546  1  0  0.122815  0  0.96696  0  0  0.135195  0  1.024139  0  0  0.13873  0  1.022689  0  0.13849  0  0.106069  0.13255  0  1.025413  0
H  H40  1  0.98806046  0.90103910  0.83319860  1  0  0.11589  0  0.959131  0  0  0.127644  0  1.018761  0  0  0.130945  0  1.01721  0  0.143027  0  0.107107  0.125175  0  1.020085  0
H  H41  1  0.01193962  0.09896021  0.16680003  1  0  0.115881  0  0.959143  0  0  0.127638  0  1.018769  0  0  0.130939  0  1.017216  0  0.143044  0  0.107105  0.125168  0  1.020095  0
C  C42  1  0.97005368  0.62011988  0.07451802  1  0  0.14705  0  3.616517  0  0  0.114626  0  3.877617  0  0  0.127956  0  3.890017  0  0.469152  0  0.068773  0.105733  0  3.869784  0
C  C43  1  0.02994583  0.37988118  0.92548306  1  0  0.147039  0  3.616556  0  0  0.114605  0  3.877658  0  0  0.127943  0  3.890053  0  0.469184  0  0.068722  0.105711  0  3.869826  0
C  C44  1  0.87046477  0.61481308  0.98158631  1  0  -0.100612  0  3.701011  0  0  -0.116824  0  3.963988  0  0  -0.124989  0  3.981959  0  -0.025822  0  -0.071054  -0.111432  0  3.951802  0
C  C45  1  0.12953474  0.38518798  0.01841477  1  0  -0.100693  0  3.701057  0  0  -0.116898  0  3.964024  0  0  -0.125065  0  3.981986  0  -0.025814  0  -0.07108  -0.111507  0  3.95184  0
C  C46  1  0.89297944  0.70601988  0.92448252  1  0  -0.01586  0  3.616572  0  0  -0.037282  0  3.852504  0  0  -0.031036  0  3.865747  0  0.000659  0  -0.04733  -0.041876  0  3.844299  0
C  C47  1  0.10701950  0.29397943  0.07551755  1  0  -0.015819  0  3.616515  0  0  -0.03724  0  3.852444  0  0  -0.030996  0  3.865693  0  0.000793  0  -0.047295  -0.041833  0  3.844237  0
C  C48  1  0.02042122  0.80315822  0.95929674  1  0  0.052233  0  3.765766  0  0  0.070418  0  3.988478  0  0  0.068222  0  4.010041  0  0.022812  0  0.010725  0.071804  0  3.974193  0
C  C49  1  0.97957999  0.19684109  0.04070274  1  0  0.052228  0  3.765748  0  0  0.070413  0  3.988472  0  0  0.068216  0  4.010034  0  0.0227  0  0.010714  0.071799  0  3.974187  0
C  C50  1  0.11480467  0.80147858  0.05305421  1  0  0.127192  0  3.757258  0  0  0.120983  0  3.996861  0  0  0.127221  0  4.01566  0  0.433911  0  0.122484  0.116655  0  3.984936  0
C  C51  1  0.88519343  0.19852160  0.94694590  1  0  0.127217  0  3.757296  0  0  0.120998  0  3.996951  0  0  0.127238  0  4.015752  0  0.433937  0  0.122492  0.116669  0  3.985025  0
C  C52  1  0.24684657  0.89411897  0.09257000  1  0  0.118541  0  3.76742  0  0  0.109064  0  4.011811  0  0  0.114804  0  4.03182  0  0.43153  0  0.119762  0.105087  0  3.998947  0
C  C53  1  0.75315408  0.10588208  0.90742963  1  0  0.118532  0  3.767386  0  0  0.108982  0  4.011818  0  0  0.114717  0  4.031838  0  0.431577  0  0.119754  0.105009  0  3.998955  0
C  C54  1  0.28764113  0.98992756  0.03885091  1  0  0.034268  0  3.779639  0  0  0.053008  0  4.006979  0  0  0.049729  0  4.031302  0  0.017055  0  0.005037  0.055067  0  3.990911  0
C  C55  1  0.71235980  0.01007088  0.96114692  1  0  0.034309  0  3.779523  0  0  0.053121  0  4.006788  0  0  0.049842  0  4.031118  0  0.016874  0  0.005059  0.055173  0  3.990726  0
C  C56  1  0.42464029  0.07552024  0.08316913  1  0  -0.02592  0  3.64288  0  0  -0.050869  0  3.889665  0  0  -0.044661  0  3.903373  0  0.006854  0  -0.051124  -0.055115  0  3.880576  0
C  C57  1  0.57536093  0.92447906  0.91683035  1  0  -0.025982  0  3.642836  0  0  -0.05096  0  3.889614  0  0  -0.044751  0  3.903319  0  0.006878  0  -0.051141  -0.055197  0  3.880518  0
C  C58  1  0.51097869  0.06109189  0.17358753  1  0  -0.112062  0  3.703918  0  0  -0.130808  0  3.966675  0  0  -0.138971  0  3.98462  0  0.012915  0  -0.069453  -0.125473  0  3.954593  0
C  C59  1  0.48902252  0.93890742  0.82641042  1  0  -0.112102  0  3.703952  0  0  -0.130825  0  3.966723  0  0  -0.13899  0  3.98467  0  0.013004  0  -0.069467  -0.125491  0  3.954638  0
C  C60  1  0.46062273  0.96358552  0.22281687  1  0  0.163493  0  3.613506  0  0  0.132185  0  3.875179  0  0  0.146829  0  3.88477  0  0.471973  0  0.07859  0.122418  0  3.869017  0
C  C61  1  0.53937764  0.03641466  0.77718265  1  0  0.163554  0  3.613607  0  0  0.132191  0  3.875298  0  0  0.146835  0  3.884891  0  0.471967  0  0.07857  0.122424  0  3.869136  0
C  C62  1  0.08572988  0.93896326  0.30961388  1  0  0.136025  0  3.626489  0  0  0.102609  0  3.895034  0  0  0.11564  0  3.908348  0  0.458409  0  0.063325  0.094177  0  3.886022  0
C  C63  1  0.91426822  0.06103692  0.69038470  1  0  0.135923  0  3.626531  0  0  0.102519  0  3.895079  0  0  0.115554  0  3.908394  0  0.458334  0  0.063284  0.094087  0  3.886066  0
C  C64  1  0.96794865  0.97966210  0.35525193  1  0  -0.100196  0  3.678659  0  0  -0.111871  0  3.926674  0  0  -0.120161  0  3.945611  0  -0.024105  0  -0.071442  -0.10656  0  3.914326  0
C  C65  1  0.03204831  0.02033808  0.64474733  1  0  -0.100118  0  3.67859  0  0  -0.11183  0  3.92663  0  0  -0.120119  0  3.945562  0  -0.024061  0  -0.071447  -0.106517  0  3.91428  0
C  C66  1  0.85037203  0.90312884  0.39057476  1  0  -0.002483  0  3.615888  0  0  -0.025405  0  3.85773  0  0  -0.019043  0  3.871335  0  -0.038505  0  -0.043222  -0.029944  0  3.849214  0
C  C67  1  0.14962861  0.09687222  0.60942487  1  0  -0.002432  0  3.615837  0  0  -0.025388  0  3.857662  0  0  -0.01901  0  3.871273  0  -0.038598  0  -0.043188  -0.029928  0  3.849146  0
C  C68  1  0.85238514  0.78414990  0.38291678  1  0  0.053205  0  3.75853  0  0  0.068791  0  3.984488  0  0  0.0667  0  4.006192  0  0.071762  0  0.014947  0.070047  0  3.970246  0
C  C69  1  0.14761409  0.21585028  0.61708418  1  0  0.053127  0  3.758679  0  0  0.068799  0  3.984554  0  0  0.066711  0  4.006248  0  0.071733  0  0.014926  0.070056  0  3.970311  0
C  C70  1  0.97625704  0.75081531  0.33786454  1  0  0.133173  0  3.750227  0  0  0.128348  0  3.988807  0  0  0.135086  0  4.007167  0  0.439465  0  0.122513  0.123751  0  3.977091  0
C  C71  1  0.02374360  0.24918575  0.66213509  1  0  0.133215  0  3.750265  0  0  0.128341  0  3.988871  0  0  0.135077  0  4.00723  0  0.439462  0  0.12254  0.123743  0  3.977157  0
C  C72  1  0.99406675  0.63523666  0.33410239  1  0  0.118978  0  3.762456  0  0  0.110096  0  4.006601  0  0  0.115557  0  4.026592  0  0.474594  0  0.121327  0.106278  0  3.993823  0
C  C73  1  0.00593305  0.36476526  0.66589804  1  0  0.118949  0  3.762458  0  0  0.110075  0  4.00666  0  0  0.115552  0  4.026634  0  0.474865  0  0.121307  0.106256  0  3.993881  0
C  C74  1  0.88922039  0.55033049  0.37498100  1  0  0.02977  0  3.787808  0  0  0.043302  0  4.026209  0  0  0.04009  0  4.050726  0  0.04831  0  0.007058  0.045551  0  4.009532  0
C  C75  1  0.11077912  0.44967057  0.62501931  1  0  0.02979  0  3.787826  0  0  0.043297  0  4.026254  0  0  0.040079  0  4.050769  0  0.048043  0  0.007043  0.045545  0  4.009578  0
C  C76  1  0.92323108  0.43941907  0.37296033  1  0  -0.031432  0  3.645126  0  0  -0.059425  0  3.897459  0  0  -0.054582  0  3.912897  0  -0.00437  0  -0.049061  -0.062742  0  3.887083  0
C  C77  1  0.07677127  0.56058373  0.62703962  1  0  -0.031498  0  3.645177  0  0  -0.05949  0  3.897516  0  0  -0.05465  0  3.912963  0  -0.004387  0  -0.049054  -0.062808  0  3.887141  0
C  C78  1  0.05544327  0.42057042  0.33352154  1  0  -0.091205  0  3.672162  0  0  -0.102865  0  3.919764  0  0  -0.110935  0  3.938847  0  0.003948  0  -0.067869  -0.097608  0  3.907111  0
C  C79  1  0.94455625  0.57943063  0.66647801  1  0  -0.09116  0  3.67215  0  0  -0.102816  0  3.919748  0  0  -0.110886  0  3.938828  0  0.003941  0  -0.06787  -0.097559  0  3.907097  0
C  C80  1  0.15295868  0.51005744  0.29330817  1  0  0.167141  0  3.584442  0  0  0.139188  0  3.834919  0  0  0.153264  0  3.845464  0  0.469908  0  0.075171  0.129854  0  3.828444  0
C  C81  1  0.84704224  0.48994448  0.70669311  1  0  0.167126  0  3.584453  0  0  0.139182  0  3.834949  0  0  0.153262  0  3.845492  0  0.469997  0  0.075173  0.129846  0  3.828474  0
C  C82  1  0.75974611  0.58389805  0.41572346  1  0  -0.072021  0  3.674642  0  0  -0.095681  0  3.927032  0  0  -0.098452  0  3.948936  0  0.014708  0  -0.06726  -0.093655  0  3.91216  0
C  C83  1  0.24025595  0.41610388  0.58427867  1  0  -0.072017  0  3.674584  0  0  -0.095644  0  3.926964  0  0  -0.098411  0  3.948866  0  0.014885  0  -0.067234  -0.093618  0  3.912094  0
C  C84  1  0.74199946  0.69568462  0.41881027  1  0  -0.082464  0  3.673524  0  0  -0.106211  0  3.926131  0  0  -0.109828  0  3.948004  0  -0.079778  0  -0.06674  -0.103547  0  3.910973  0
C  C85  1  0.25800090  0.30431556  0.58119154  1  0  -0.082459  0  3.673497  0  0  -0.106247  0  3.9261  0  0  -0.109866  0  3.947965  0  -0.079924  0  -0.066754  -0.103583  0  3.910943  0
C  C86  1  0.19007821  0.99117878  0.94381529  1  0  -0.103417  0  3.708996  0  0  -0.126954  0  3.960872  0  0  -0.131491  0  3.985697  0  -0.04304  0  -0.080841  -0.123827  0  3.944324  0
C  C87  1  0.80992215  0.00882140  0.05618422  1  0  -0.103493  0  3.709036  0  0  -0.127004  0  3.960886  0  0  -0.131565  0  3.985695  0  -0.042935  0  -0.080846  -0.123876  0  3.944338  0
C  C88  1  0.06206566  0.90137154  0.90576979  1  0  -0.090694  0  3.693764  0  0  -0.113415  0  3.943002  0  0  -0.116708  0  3.965993  0  -0.072772  0  -0.075813  -0.111083  0  3.927589  0
C  C89  1  0.93793443  0.09862777  0.09423037  1  0  -0.090692  0  3.693773  0  0  -0.113409  0  3.942994  0  0  -0.116704  0  3.965995  0  -0.072792  0  -0.075824  -0.111077  0  3.92758  0
N  N90  1  0.08864905  0.71236239  0.10990073  1  0  -0.245905  0  3.346323  0  0  -0.21355  0  3.623692  0  0  -0.238775  0  3.643402  0  -1.174288  0  -0.315722  -0.198913  0  3.611763  0
N  N91  1  0.91135046  0.28763867  0.89010035  1  0  -0.24587  0  3.346307  0  0  -0.213501  0  3.623678  0  0  -0.238738  0  3.643386  0  -1.174374  0  -0.315648  -0.198863  0  3.611749  0
N  N92  1  0.33014751  0.88300104  0.18318827  1  0  -0.26749  0  3.383745  0  0  -0.234261  0  3.6619  0  0  -0.259901  0  3.681852  0  -1.175842  0  -0.325527  -0.219017  0  3.649164  0
N  N93  1  0.66985200  0.11700001  0.81681204  1  0  -0.267533  0  3.383769  0  0  -0.23423  0  3.661905  0  0  -0.259876  0  3.681855  0  -1.17584  0  -0.325513  -0.218989  0  3.649172  0
N  N94  1  0.08835230  0.82633381  0.30019322  1  0  -0.269744  0  3.400472  0  0  -0.243865  0  3.689861  0  0  -0.271901  0  3.713696  0  -1.164241  0  -0.318155  -0.227111  0  3.674307  0
N  N95  1  0.91164835  0.17366725  0.69980717  1  0  -0.26972  0  3.400493  0  0  -0.243831  0  3.689887  0  0  -0.271881  0  3.713728  0  -1.16422  0  -0.318122  -0.227077  0  3.674336  0
N  N96  1  0.12089086  0.61395799  0.29262671  1  0  -0.246793  0  3.360235  0  0  -0.214078  0  3.636003  0  0  -0.239526  0  3.655202  0  -1.187197  0  -0.323568  -0.199112  0  3.624108  0
N  N97  1  0.87911006  0.38604394  0.70737457  1  0  -0.246748  0  3.36018  0  0  -0.214066  0  3.635989  0  0  -0.239529  0  3.655181  0  -1.187259  0  -0.32355  -0.199092  0  3.624084  0
O  O98  1  0.21951146  0.84869531  0.52522112  1  0  -0.759717  0  1.248033  0  0  -0.778657  0  1.482004  0  0  -0.809368  0  1.477222  0  -0.839225  0  -0.601221  -0.753971  0  1.48823  0
O  O99  1  0.78049371  0.15130923  0.47477848  1  0  -0.75973  0  1.248026  0  0  -0.778659  0  1.482017  0  0  -0.809396  0  1.477249  0  -0.839301  0  -0.601236  -0.75397  0  1.488247  0
O  O100  1  0.45672979  0.67713613  0.77307604  1  0  -0.999572  0  1.604738  0  0  -1.022006  0  1.908018  0  0  -1.068999  0  1.90055  0  -1.028305  0  -0.689873  -0.984001  0  1.916425  0
O  O101  1  0.54326746  0.32286144  0.22692218  1  0  -0.999568  0  1.604774  0  0  -1.022037  0  1.908067  0  0  -1.069009  0  1.9006  0  -1.028255  0  -0.689903  -0.984044  0  1.916465  0
O  O102  1  0.49077063  0.77870611  0.57374860  1  0  -1.025762  0  1.609818  0  0  -1.047176  0  1.909176  0  0  -1.094284  0  1.897815  0  -1.058745  0  -0.709912  -1.007972  0  1.920942  0
O  O103  1  0.50923144  0.22129233  0.42625161  1  0  -1.025753  0  1.609727  0  0  -1.047175  0  1.90908  0  0  -1.094269  0  1.897721  0  -1.058593  0  -0.709897  -1.007968  0  1.920849  0
O  O104  1  0.59796107  0.58122894  0.61412706  1  0  -0.759743  0  1.297281  0  0  -0.768742  0  1.542787  0  0  -0.801701  0  1.53539  0  -0.828383  0  -0.590016  -0.743669  0  1.551071  0
O  O105  1  0.40203307  0.41876600  0.38586986  1  0  -0.759788  0  1.297471  0  0  -0.768764  0  1.542917  0  0  -0.801703  0  1.535541  0  -0.82849  0  -0.590029  -0.74369  0  1.551201  0
O  O106  1  0.20896819  0.61484187  0.87789362  1  0  -0.733612  0  1.284608  0  0  -0.742903  0  1.520519  0  0  -0.770077  0  1.517572  0  -0.802262  0  -0.584852  -0.722302  0  1.52518  0
O  O107  1  0.79103302  0.38516093  0.12210778  1  0  -0.733566  0  1.284613  0  0  -0.742854  0  1.520528  0  0  -0.770028  0  1.517571  0  -0.802261  0  -0.584807  -0.722264  0  1.525175  0
O  O108  1  0.75599677  0.78882934  0.72043005  1  0  -0.834017  0  1.280026  0  0  -0.845737  0  1.53018  0  0  -0.881102  0  1.522404  0  -0.912272  0  -0.621692  -0.818563  0  1.538633  0
O  O109  1  0.24400474  0.21116386  0.27956876  1  0  -0.834002  0  1.280054  0  0  -0.845757  0  1.530198  0  0  -0.881101  0  1.522439  0  -0.912145  0  -0.621726  -0.818579  0  1.538648  0
O  O110  1  0.65117910  0.79469369  0.17413488  1  0  -0.725202  0  1.275992  0  0  -0.737859  0  1.513981  0  0  -0.76721  0  1.509828  0  -0.805918  0  -0.581302  -0.714021  0  1.520722  0
O  O111  1  0.34882268  0.20530736  0.82586637  1  0  -0.725244  0  1.276095  0  0  -0.737916  0  1.514074  0  0  -0.767247  0  1.509926  0  -0.805902  0  -0.581327  -0.714076  0  1.520821  0
O  O112  1  0.50327636  0.65500672  0.98981985  1  0  -1.016221  0  1.621856  0  0  -1.045926  0  1.931859  0  0  -1.091353  0  1.925563  0  -1.026811  0  -0.691656  -1.007708  0  1.938836  0
O  O113  1  0.49672429  0.34499433  0.01017978  1  0  -1.01618  0  1.62186  0  0  -1.04589  0  1.931849  0  0  -1.0913  0  1.925541  0  -1.026769  0  -0.691648  -1.007685  0  1.93882  0
O  O114  1  0.62276858  0.55175535  0.16265843  1  0  -0.996997  0  1.594502  0  0  -1.027238  0  1.900752  0  0  -1.072405  0  1.896398  0  -1.026773  0  -0.689716  -0.989497  0  1.907099  0
O  O115  1  0.37722980  0.44824570  0.83734409  1  0  -0.997017  0  1.594495  0  0  -1.027283  0  1.900759  0  0  -1.072433  0  1.896409  0  -1.026736  0  -0.689752  -0.989521  0  1.907112  0
O  O116  1  0.35931395  0.65774650  0.17532758  1  0  -0.792012  0  1.641808  0  0  -0.831908  0  1.955165  0  0  -0.877982  0  1.94826  0  -0.896791  0  -0.58158  -0.798246  0  1.961521  0
O  O117  1  0.64068556  0.34225455  0.82467196  1  0  -0.791999  0  1.641734  0  0  -0.83191  0  1.955074  0  0  -0.877981  0  1.948171  0  -0.896735  0  -0.581562  -0.798244  0  1.961431  0
O  O118  1  0.37622171  0.79025158  0.36168933  1  0  -0.803634  0  1.643697  0  0  -0.847823  0  1.959092  0  0  -0.896593  0  1.953194  0  -0.907723  0  -0.588803  -0.812445  0  1.963581  0
O  O119  1  0.62377894  0.20974947  0.63831030  1  0  -0.803655  0  1.64369  0  0  -0.847838  0  1.95911  0  0  -0.896618  0  1.953185  0  -0.90771  0  -0.588795  -0.812454  0  1.9636  0
O  O120  1  0.50000710  0.99999844  0.50000082  1  0  -1.039889  0  1.603641  0  0  -1.065411  0  1.908667  0  0  -1.11028  0  1.898553  0  -1.07242  0  -0.711518  -1.027621  0  1.919319  0
