# generated using pymatgen
data_CuH12C8(N8Cl)2
_symmetry_space_group_name_H-M   'P 1'
_cell_length_a   6.57933212
_cell_length_b   8.42552962
_cell_length_c   15.24241792
_cell_angle_alpha   91.86630886
_cell_angle_beta   89.99990831
_cell_angle_gamma   90.00011117
_symmetry_Int_Tables_number   1
_chemical_formula_structural   CuH12C8(N8Cl)2
_chemical_formula_sum   'Cu2 H24 C16 N32 Cl4'
_cell_volume   844.50543135
_cell_formula_units_Z   2
loop_
 _symmetry_equiv_pos_site_id
 _symmetry_equiv_pos_as_xyz
  1  'x, y, z'
loop_
 _atom_site_type_symbol
 _atom_site_label
 _atom_site_symmetry_multiplicity
 _atom_site_fract_x
 _atom_site_fract_y
 _atom_site_fract_z
 _atom_site_occupancy
 _atom_site_hle17_ddec_charge
 _atom_site_hle17_ddec_spin_density
 _atom_site_hle17_ddec_sum_bond_order
 _atom_site_hle17_magmom
 _atom_site_hse06_10hf_bader_charge
 _atom_site_hse06_10hf_bader_spin_density
 _atom_site_hse06_10hf_ddec_charge
 _atom_site_hse06_10hf_ddec_spin_density
 _atom_site_hse06_10hf_ddec_sum_bond_order
 _atom_site_hse06_10hf_magmom
 _atom_site_hse06_ddec_charge
 _atom_site_hse06_ddec_spin_density
 _atom_site_hse06_ddec_sum_bond_order
 _atom_site_hse06_magmom
 _atom_site_pbe_cm5_charge
 _atom_site_pbe_ddec_charge
 _atom_site_pbe_ddec_spin_density
 _atom_site_pbe_ddec_sum_bond_order
 _atom_site_pbe_magmom
Cu  Cu0  1  0.00000427  0.50000921  0.49999912  1  0.715973  0.639603  2.003995  0.468  1.042994  0.589043  0.688508  0.742558  2.422237  0.588  0.781457  0.807589  2.34255  0.672  0.630648  0.637044  0.700668  2.47052  0.539
Cu  Cu1  1  0.49999545  0.99999499  0.99999513  1  0.715922  0.639602  2.004067  0.468  1.043004  0.589045  0.688458  0.742561  2.422321  0.588  0.78136  0.807593  2.342674  0.672  0.630614  0.636962  0.700668  2.470614  0.539
H  H2  1  0.34332031  0.78634423  0.67451392  1  0.10967  -8.4e-05  0.931175  0.0  0.152809  9e-05  0.118494  4.8e-05  1.003352  0.0  0.120525  2.1e-05  1.000589  0.0  0.118764  0.116889  7.8e-05  1.004637  0.0
H  H3  1  0.84330989  0.71365228  0.82548853  1  0.109665  -7.6e-05  0.931153  0.0  0.152729  9e-05  0.118559  4.8e-05  1.003293  0.0  0.120589  2e-05  1.000529  0.0  0.118769  0.116928  7.8e-05  1.004603  0.0
H  H4  1  0.65669398  0.21366788  0.32549046  1  0.109755  -7.8e-05  0.931124  0.0  0.152744  9e-05  0.11861  4.8e-05  1.003246  0.0  0.120662  2e-05  1.000467  0.0  0.118782  0.116964  7.7e-05  1.004565  0.0
H  H5  1  0.15667552  0.28632653  0.17451213  1  0.109638  -8e-05  0.93117  0.0  0.152871  9e-05  0.118572  4.8e-05  1.003209  0.0  0.120606  2e-05  1.000444  0.0  0.118767  0.116934  7.7e-05  1.004525  0.0
H  H6  1  0.35685863  0.98867820  0.55973949  1  0.097497  -8e-06  0.952739  0.0  0.159904  8e-06  0.098524  -1.2e-05  1.037289  0.0  0.101138  -1e-05  1.034329  0.0  0.11856  0.096605  -1.4e-05  1.039365  0.0
H  H7  1  0.85684878  0.51132429  0.94026368  1  0.097487  -1e-05  0.952807  0.0  0.159835  8e-06  0.098516  -1.2e-05  1.037369  0.0  0.101139  -9e-06  1.034413  0.0  0.11857  0.096602  -1.4e-05  1.039439  0.0
H  H8  1  0.64315717  0.01132919  0.44026614  1  0.097489  -9e-06  0.952753  0.0  0.159772  8e-06  0.098499  -1.2e-05  1.037375  0.0  0.10112  -9e-06  1.034417  0.0  0.11856  0.096584  -1.4e-05  1.039444  0.0
H  H9  1  0.14314271  0.48865925  0.05973507  1  0.097482  -1e-05  0.95272  0.0  0.159738  8e-06  0.098592  -1.2e-05  1.037246  0.0  0.101202  -9e-06  1.034288  0.0  0.118607  0.096677  -1.4e-05  1.039317  0.0
H  H10  1  0.54794286  0.60374154  0.56993032  1  0.128945  -0.000233  0.963116  0.0  0.245395  0.000197  0.133689  -1e-06  1.033133  0.0  0.137136  -1.2e-05  1.028102  0.0  0.13499  0.130883  2.1e-05  1.036416  0.0
H  H11  1  0.04793588  0.89626151  0.93006191  1  0.12887  -0.000231  0.96314  0.0  0.245358  0.000196  0.133673  -1e-06  1.033106  0.0  0.13712  -1.2e-05  1.028081  0.0  0.134983  0.130876  2.1e-05  1.036397  0.0
H  H12  1  0.45206383  0.39627522  0.43006755  1  0.128875  -0.000231  0.963097  0.0  0.245252  0.000197  0.133717  -0.0  1.033038  0.0  0.13717  -1.2e-05  1.027985  0.0  0.134945  0.130908  2.1e-05  1.03633  0.0
H  H13  1  0.95205104  0.10372082  0.06993551  1  0.128903  -0.000232  0.963087  0.0  0.245366  0.000196  0.133719  -1e-06  1.033027  0.0  0.137169  -1.2e-05  1.027992  0.0  0.134956  0.130916  2.1e-05  1.036324  0.0
H  H14  1  0.24036367  0.06492956  0.65791109  1  0.108627  -5.1e-05  0.911826  0.0  0.104526  5e-06  0.124812  -4.8e-05  0.97045  0.0  0.125421  -4e-05  0.970184  0.0  0.124512  0.124224  -4.9e-05  0.970934  0.0
H  H15  1  0.74035376  0.43506655  0.84209419  1  0.108546  -5.2e-05  0.911873  0.0  0.104503  5e-06  0.124757  -4.8e-05  0.970481  0.0  0.125365  -4e-05  0.97022  0.0  0.124508  0.124179  -4.9e-05  0.970945  0.0
H  H16  1  0.75964758  0.93507901  0.34209389  1  0.108541  -5.2e-05  0.911916  0.0  0.104542  5e-06  0.124768  -4.8e-05  0.970527  0.0  0.12538  -4e-05  0.970262  0.0  0.124493  0.124185  -5e-05  0.970997  0.0
H  H17  1  0.25964077  0.56491105  0.15790448  1  0.108565  -5.3e-05  0.911918  0.0  0.104557  5e-06  0.124809  -4.8e-05  0.970542  0.0  0.125415  -4e-05  0.970272  0.0  0.124529  0.124226  -5e-05  0.971019  0.0
H  H18  1  0.48937771  0.91377123  0.74816313  1  0.104569  -9.9e-05  0.939868  0.0  0.129162  0.000157  0.111193  -6e-06  1.015974  0.0  0.113404  -2.6e-05  1.01299  0.0  0.112838  0.109511  1.7e-05  1.017329  0.0
H  H19  1  0.98936420  0.58622426  0.75183658  1  0.10463  -9.2e-05  0.939766  0.0  0.12925  0.000157  0.11125  -6e-06  1.015922  0.0  0.113462  -2.6e-05  1.012933  0.0  0.112858  0.10956  1.7e-05  1.017285  0.0
H  H20  1  0.51063354  0.08623969  0.25184057  1  0.104451  -9.2e-05  0.939769  0.0  0.129251  0.000157  0.110993  -6e-06  1.016015  0.0  0.113214  -2.6e-05  1.013024  0.0  0.112766  0.109313  1.7e-05  1.017361  0.0
H  H21  1  0.01061361  0.41375811  0.24816347  1  0.104535  -9.6e-05  0.93978  0.0  0.129181  0.000157  0.111103  -6e-06  1.015978  0.0  0.113315  -2.6e-05  1.012993  0.0  0.112783  0.109425  1.7e-05  1.017326  0.0
H  H22  1  0.55249109  0.22194074  0.76759400  1  0.117955  -0.00012  0.965709  0.0  0.238929  1.9e-05  0.122117  -8e-06  1.035064  0.0  0.125845  -1.9e-05  1.030611  0.0  0.135632  0.119434  9e-06  1.038185  0.0
H  H23  1  0.05250583  0.27807526  0.73241036  1  0.117946  -0.00012  0.96583  0.0  0.238973  1.9e-05  0.12213  -8e-06  1.035135  0.0  0.125851  -1.9e-05  1.030694  0.0  0.135617  0.119465  9e-06  1.038249  0.0
H  H24  1  0.44751256  0.77807490  0.23240845  1  0.117922  -0.000121  0.96586  0.0  0.238943  1.9e-05  0.122091  -8e-06  1.035146  0.0  0.125813  -1.9e-05  1.030706  0.0  0.135616  0.119422  9e-06  1.038252  0.0
H  H25  1  0.94750694  0.72192019  0.26759117  1  0.11792  -0.000124  0.965794  0.0  0.23931  1.9e-05  0.122108  -8e-06  1.035082  0.0  0.12583  -2e-05  1.030641  0.0  0.135614  0.119437  9e-06  1.038194  0.0
C  C26  1  0.66972581  0.68509256  0.58866133  1  0.173211  -0.006308  3.605529  -0.003  1.022206  -0.001529  0.09459  -0.001603  3.869246  0.0  0.121628  -0.003022  3.883647  -0.001  0.180743  0.084692  -0.000542  3.862289  0.001
C  C27  1  0.16971869  0.81490834  0.91133341  1  0.173245  -0.006322  3.605457  -0.003  1.022342  -0.001531  0.09452  -0.001605  3.86924  0.0  0.121526  -0.003022  3.883648  -0.001  0.180672  0.084603  -0.000542  3.862299  0.001
C  C28  1  0.33027632  0.31492180  0.41133454  1  0.173305  -0.006329  3.605599  -0.003  1.022093  -0.001531  0.094544  -0.001605  3.869281  0.0  0.121628  -0.003023  3.883699  -0.001  0.180825  0.084645  -0.000542  3.862327  0.001
C  C29  1  0.83025912  0.18507405  0.08866795  1  0.173165  -0.006323  3.60566  -0.003  1.022114  -0.001531  0.094524  -0.001605  3.869339  0.0  0.121534  -0.003023  3.883734  -0.001  0.180733  0.084618  -0.000543  3.862392  0.001
C  C30  1  0.60063443  0.23906272  0.70047784  1  0.149483  0.001009  3.648465  0.0  0.99626  0.000863  0.077739  0.001056  3.920542  0.0  0.090243  0.000725  3.928391  0.0  0.16516  0.069913  0.001326  3.914922  0.0
C  C31  1  0.10063367  0.26094734  0.79952181  1  0.149191  0.001006  3.648404  0.0  0.999642  0.000862  0.077446  0.001056  3.920495  0.0  0.089952  0.000725  3.928346  0.0  0.165082  0.069616  0.001327  3.914874  0.0
C  C32  1  0.39937074  0.76095172  0.29952394  1  0.149195  0.001013  3.648934  0.0  1.000256  0.000862  0.077547  0.001056  3.920888  0.0  0.090056  0.000725  3.928731  0.0  0.165146  0.069728  0.001327  3.915247  0.0
C  C33  1  0.89936998  0.73905160  0.20047517  1  0.149267  0.001028  3.648604  0.0  0.999423  0.000862  0.077571  0.001057  3.920655  0.0  0.090077  0.000725  3.928502  0.0  0.165132  0.069745  0.001327  3.915022  0.0
C  C34  1  0.38335539  0.02271676  0.62873776  1  -0.035078  -0.000161  3.612581  0.0  0.279961  -4.8e-05  -0.114103  -0.000121  3.876909  0.0  -0.110513  -0.000102  3.883539  0.0  -0.04249  -0.116104  -0.000126  3.870744  0.0
C  C35  1  0.88334700  0.47727954  0.87126743  1  -0.034921  -0.000143  3.612379  0.0  0.280549  -4.9e-05  -0.113923  -0.000122  3.876705  0.0  -0.110381  -0.000103  3.883396  0.0  -0.042431  -0.115901  -0.000126  3.87051  0.0
C  C36  1  0.61665586  0.97728941  0.37126654  1  -0.034891  -0.000144  3.612228  0.0  0.280219  -4.8e-05  -0.114099  -0.000122  3.876792  0.0  -0.110528  -0.000103  3.883456  0.0  -0.042431  -0.116077  -0.000126  3.870583  0.0
C  C37  1  0.11664449  0.52270046  0.12873324  1  -0.034954  -0.000144  3.612407  0.0  0.279989  -4.8e-05  -0.114218  -0.000122  3.877023  0.0  -0.110618  -0.000104  3.883636  0.0  -0.042523  -0.116207  -0.000126  3.870837  0.0
C  C38  1  0.45866952  0.88044672  0.67914481  1  -0.03745  0.000518  3.580069  0.0  0.281452  0.000492  -0.113657  0.000412  3.836275  0.0  -0.100203  0.0003  3.848499  0.0  -0.043116  -0.114965  0.000504  3.829731  0.0
C  C39  1  0.95865735  0.61954637  0.82085620  1  -0.037548  0.000485  3.579917  0.0  0.281174  0.000492  -0.113913  0.000412  3.836349  0.0  -0.100419  0.000302  3.848482  0.0  -0.043171  -0.115192  0.000504  3.829806  0.0
C  C40  1  0.54134021  0.11956419  0.32085824  1  -0.037519  0.00049  3.579881  0.0  0.281521  0.000493  -0.113617  0.000413  3.835906  0.0  -0.10014  0.000302  3.848135  0.0  -0.043062  -0.114902  0.000503  3.829386  0.0
C  C41  1  0.04133110  0.38043718  0.17914386  1  -0.037428  0.0005  3.579719  0.0  0.281511  0.000492  -0.113584  0.000412  3.835928  0.0  -0.100127  0.000302  3.848067  0.0  -0.043021  -0.114867  0.000503  3.829404  0.0
N  N42  1  0.86547367  0.67578140  0.56818839  1  -0.244  0.058898  3.294148  0.076  -0.73887  0.067284  -0.201108  0.045649  3.619618  0.062  -0.231299  0.038301  3.635008  0.055  -0.249199  -0.183774  0.049647  3.608802  0.064
N  N43  1  0.36546650  0.82422216  0.93180691  1  -0.244043  0.058904  3.294094  0.076  -0.738839  0.067282  -0.201109  0.045649  3.619554  0.062  -0.23129  0.038301  3.634946  0.055  -0.249242  -0.183768  0.049646  3.608739  0.064
N  N44  1  0.13453150  0.32423892  0.43180887  1  -0.244084  0.058898  3.294011  0.076  -0.738594  0.067274  -0.201221  0.045644  3.619553  0.062  -0.231409  0.038298  3.634929  0.055  -0.249293  -0.183889  0.049641  3.60875  0.064
N  N45  1  0.63451739  0.17576607  0.06818862  1  -0.24404  0.058901  3.2941  0.076  -0.738669  0.067276  -0.201132  0.045644  3.619552  0.062  -0.231316  0.038296  3.634942  0.055  -0.249196  -0.183793  0.049642  3.608736  0.064
N  N46  1  0.82915855  0.88724458  0.65220190  1  -0.093669  0.004145  2.827211  0.005  -0.074361  0.005284  -0.113164  0.003329  3.107857  0.004  -0.100183  0.002132  3.122516  0.003  -0.072215  -0.114316  0.004422  3.10182  0.005
N  N47  1  0.32914811  0.61274952  0.84779921  1  -0.093591  0.004148  2.827101  0.005  -0.074491  0.005284  -0.113039  0.003328  3.107683  0.004  -0.100087  0.002132  3.122334  0.003  -0.072189  -0.11418  0.004422  3.10164  0.005
N  N48  1  0.17085118  0.11276396  0.34780177  1  -0.093821  0.00414  2.827071  0.005  -0.074149  0.005285  -0.113397  0.003329  3.10773  0.004  -0.100373  0.002132  3.122403  0.003  -0.072359  -0.114538  0.004421  3.101685  0.005
N  N49  1  0.67083578  0.38723627  0.15219235  1  -0.093715  0.00414  2.827022  0.005  -0.074203  0.005284  -0.113162  0.003329  3.107638  0.004  -0.100208  0.002132  3.122281  0.003  -0.072308  -0.114305  0.004421  3.101595  0.005
N  N50  1  0.75101018  0.31142290  0.58370000  1  -0.076141  -0.001997  3.040635  -0.001  -0.103507  -0.001862  -0.073085  -0.001889  3.374715  -0.001  -0.07836  -0.002126  3.38668  -0.001  -0.081041  -0.070607  -0.001588  3.367963  -0.001
N  N51  1  0.25101336  0.18858385  0.91630213  1  -0.07616  -0.001993  3.040718  -0.001  -0.103853  -0.001862  -0.073093  -0.001889  3.37483  -0.001  -0.078359  -0.002127  3.386789  -0.001  -0.08096  -0.070601  -0.001588  3.368056  -0.001
N  N52  1  0.24899042  0.68859748  0.41630120  1  -0.076209  -0.002006  3.040929  -0.001  -0.103798  -0.001863  -0.073157  -0.00189  3.375059  -0.001  -0.07843  -0.002127  3.387022  -0.001  -0.081015  -0.07067  -0.001588  3.368286  -0.001
N  N53  1  0.74899029  0.81140563  0.08369735  1  -0.076279  -0.001997  3.040931  -0.001  -0.103618  -0.001863  -0.07323  -0.00189  3.375052  -0.001  -0.078496  -0.002127  3.387005  -0.001  -0.08104  -0.070742  -0.001588  3.368283  -0.001
N  N54  1  0.73819265  0.34009082  0.67191638  1  -0.267806  0.000934  2.970869  0.001  -0.734679  0.001324  -0.239692  0.000873  3.272123  0.001  -0.250448  0.000655  3.286091  0.001  -0.219735  -0.23238  0.00105  3.263088  0.001
N  N55  1  0.23820368  0.15991951  0.82808778  1  -0.267661  0.000937  2.970694  0.001  -0.738214  0.001327  -0.239525  0.000874  3.271917  0.001  -0.250283  0.000655  3.285884  0.001  -0.219768  -0.232205  0.00105  3.262866  0.001
N  N56  1  0.26180492  0.65993312  0.32808487  1  -0.26766  0.00094  2.971008  0.001  -0.738716  0.001326  -0.239578  0.000874  3.272222  0.001  -0.25033  0.000655  3.286182  0.001  -0.219822  -0.232259  0.00105  3.26317  0.001
N  N57  1  0.76180605  0.84007356  0.17191372  1  -0.267619  0.000925  2.970817  0.001  -0.738261  0.00133  -0.239502  0.000877  3.27204  0.001  -0.250253  0.000658  3.285998  0.001  -0.219749  -0.232184  0.00105  3.262987  0.001
N  N58  1  0.64538146  0.81465621  0.64102476  1  0.033649  0.001928  3.5005  0.002  -0.859681  0.001895  0.157152  0.001221  3.684986  0.002  0.11189  0.001091  3.748637  0.001  -0.117972  0.164759  0.001347  3.669889  0.002
N  N59  1  0.14536965  0.68533994  0.85897256  1  0.033634  0.001931  3.500437  0.002  -0.859908  0.001897  0.157169  0.001222  3.685006  0.002  0.111979  0.001092  3.748561  0.001  -0.117931  0.164783  0.001347  3.669892  0.002
N  N60  1  0.35462979  0.18535466  0.35897631  1  0.033654  0.001943  3.50058  0.002  -0.859852  0.001894  0.157274  0.00122  3.684889  0.002  0.111895  0.001092  3.748705  0.001  -0.117928  0.164888  0.001347  3.669768  0.002
N  N61  1  0.85461576  0.31464360  0.14102619  1  0.033659  0.001934  3.500239  0.002  -0.859706  0.001898  0.157047  0.001223  3.684849  0.002  0.111868  0.001094  3.748408  0.001  -0.117994  0.16466  0.001346  3.669741  0.002
N  N62  1  0.62724524  0.19843138  0.55848688  1  -0.103071  -1.7e-05  2.89479  0.0  -0.090112  0.0  -0.112908  -1.4e-05  3.182901  0.0  -0.111611  -2.3e-05  3.194335  0.0  -0.071654  -0.113093  1.6e-05  3.175424  0.0
N  N63  1  0.12723950  0.30157166  0.94151660  1  -0.103054  -1e-05  2.894802  0.0  -0.089581  -1e-06  -0.112964  -1.5e-05  3.183006  0.0  -0.111666  -2.3e-05  3.194431  0.0  -0.07168  -0.113129  1.6e-05  3.175527  0.0
N  N64  1  0.37276296  0.80158543  0.44151427  1  -0.103103  -6e-06  2.895147  0.0  -0.089603  -1e-06  -0.113006  -1.5e-05  3.18333  0.0  -0.111708  -2.4e-05  3.194759  0.0  -0.071673  -0.113169  1.6e-05  3.175845  0.0
N  N65  1  0.87275959  0.69841192  0.05848478  1  -0.103015  1e-06  2.895042  0.0  -0.089856  -1e-06  -0.112889  -1.6e-05  3.183244  0.0  -0.111592  -2.3e-05  3.194673  0.0  -0.071629  -0.113064  1.6e-05  3.175766  0.0
N  N66  1  0.53057110  0.15172957  0.63150271  1  0.028326  0.000346  3.560312  0.0  -0.849826  0.000536  0.14838  0.000299  3.744938  0.0  0.137637  0.000203  3.766797  0.0  -0.126076  0.154799  0.000399  3.730999  0.0
N  N67  1  0.03056575  0.34827336  0.86850280  1  0.02853  0.000337  3.560057  0.0  -0.850077  0.000536  0.148585  0.000299  3.744686  0.0  0.137855  0.000202  3.766557  0.0  -0.126  0.154905  0.0004  3.730937  0.0
N  N68  1  0.46943407  0.84828131  0.36849903  1  0.028629  0.000333  3.560273  0.0  -0.850096  0.000538  0.148727  0.0003  3.744824  0.0  0.137998  0.000203  3.76668  0.0  -0.126005  0.155036  0.0004  3.731086  0.0
N  N69  1  0.96942726  0.65171619  0.13150062  1  0.028519  0.000327  3.560195  0.0  -0.849742  0.000535  0.148547  0.000298  3.744902  0.0  0.137805  0.0002  3.766753  0.0  -0.126087  0.154899  0.0004  3.731086  0.0
N  N70  1  0.96059739  0.80207304  0.60821654  1  -0.032814  -0.002758  2.90995  -0.002  -0.046575  0.000382  -0.027061  -0.000229  3.213204  0.0  -0.022713  -0.000999  3.221117  -0.001  -0.064932  -0.029497  0.000366  3.206176  0.001
N  N71  1  0.46058701  0.69792238  0.89178122  1  -0.032851  -0.002763  2.90993  -0.002  -0.046379  0.00038  -0.02711  -0.00023  3.213178  0.0  -0.022759  -0.000999  3.221091  -0.001  -0.06489  -0.029549  0.000365  3.206148  0.001
N  N72  1  0.03941081  0.19793900  0.39178324  1  -0.032611  -0.002764  2.909514  -0.002  -0.046684  0.000384  -0.026812  -0.000228  3.212737  0.0  -0.022463  -0.000999  3.220635  -0.001  -0.064753  -0.029249  0.000365  3.205703  0.001
N  N73  1  0.53940448  0.30206935  0.10821042  1  -0.032659  -0.002759  2.90975  -0.002  -0.046904  0.000383  -0.026915  -0.000228  3.212983  0.0  -0.022569  -0.000996  3.220901  -0.001  -0.064773  -0.029348  0.000366  3.205948  0.001
Cl  Cl74  1  0.23193789  0.47293450  0.61300007  1  -0.519913  0.124265  0.926835  0.152  -0.634462  0.130385  -0.536164  0.079767  1.222092  0.104  -0.570274  0.059156  1.202651  0.084  -0.318117  -0.515492  0.092785  1.235544  0.114
Cl  Cl75  1  0.73193284  0.02707333  0.88699684  1  -0.519888  0.124259  0.926858  0.152  -0.634534  0.130379  -0.536179  0.079764  1.222175  0.104  -0.570276  0.059154  1.202735  0.084  -0.318107  -0.515489  0.092782  1.235618  0.114
Cl  Cl76  1  0.76806879  0.52709064  0.38700185  1  -0.519901  0.124265  0.926878  0.152  -0.634606  0.130386  -0.536174  0.079769  1.222145  0.104  -0.570318  0.059159  1.202768  0.084  -0.318095  -0.515489  0.092791  1.235584  0.114
Cl  Cl77  1  0.26806473  0.97290533  0.11299397  1  -0.519869  0.12427  0.926855  0.152  -0.634608  0.130391  -0.536131  0.079772  1.222088  0.104  -0.570277  0.05916  1.202736  0.084  -0.318099  -0.515444  0.092793  1.235533  0.114
