# generated using pymatgen
data_CuH50C44S2(N2O)4
_symmetry_space_group_name_H-M   'P 1'
_cell_length_a   7.34996905
_cell_length_b   10.54579799
_cell_length_c   14.27539460
_cell_angle_alpha   106.79154680
_cell_angle_beta   99.70694616
_cell_angle_gamma   90.36818252
_symmetry_Int_Tables_number   1
_chemical_formula_structural   CuH50C44S2(N2O)4
_chemical_formula_sum   'Cu1 H50 C44 S2 N8 O4'
_cell_volume   1042.37514177
_cell_formula_units_Z   1
loop_
 _symmetry_equiv_pos_site_id
 _symmetry_equiv_pos_as_xyz
  1  'x, y, z'
loop_
 _atom_site_type_symbol
 _atom_site_label
 _atom_site_symmetry_multiplicity
 _atom_site_fract_x
 _atom_site_fract_y
 _atom_site_fract_z
 _atom_site_occupancy
 _atom_site_pbe_bader_charge
 _atom_site_pbe_bader_spin_density
 _atom_site_pbe_cm5_charge
 _atom_site_pbe_ddec_charge
 _atom_site_pbe_ddec_spin_density
 _atom_site_pbe_ddec_sum_bond_order
 _atom_site_pbe_magmom
Cu  Cu0  1  0.50000344  0.50000103  0.99999729  1  1.101431  0.586021  0.825853  0.827956  0.745408  2.363214  0.584
H  H1  1  0.92496754  0.42244384  0.56478189  1  0.047843  7e-06  0.097577  0.111074  5e-06  1.014382  0.0
H  H2  1  0.07502975  0.57756717  0.43521686  1  0.047771  7e-06  0.097596  0.111095  5e-06  1.014402  0.0
H  H3  1  0.01029455  0.29237059  0.61327264  1  0.057198  -4e-06  0.106213  0.113635  -1e-06  1.045378  0.0
H  H4  1  0.98971162  0.70763393  0.38671706  1  0.057473  -4e-06  0.106176  0.113585  -1e-06  1.045386  0.0
H  H5  1  0.15582909  0.37288604  0.55699828  1  0.061029  -9e-06  0.094447  0.105226  -7e-06  1.035543  0.0
H  H6  1  0.84416733  0.62712878  0.44299207  1  0.061141  -9e-06  0.094465  0.105314  -7e-06  1.035543  0.0
H  H7  1  0.04324105  0.64786910  0.65144876  1  0.048331  -9e-06  0.098928  0.107668  -8e-06  1.011756  0.0
H  H8  1  0.95674344  0.35214010  0.34855895  1  0.048218  -9e-06  0.098955  0.107698  -8e-06  1.011731  0.0
H  H9  1  0.28625175  0.62891091  0.67836474  1  0.049241  -0.0  0.095274  0.109808  -2e-06  1.020551  0.0
H  H10  1  0.71373762  0.37110613  0.32163941  1  0.049203  -0.0  0.095266  0.109781  -2e-06  1.020587  0.0
H  H11  1  0.15983969  0.68414223  0.77783396  1  0.11592  4e-06  0.108618  0.13097  2e-05  1.034025  0.0
H  H12  1  0.84015203  0.31585305  0.22216947  1  0.11592  4e-06  0.108632  0.130954  2e-05  1.033965  0.0
H  H13  1  0.10088062  0.33970115  0.77054401  1  0.058786  1e-05  0.111081  0.032982  -1.1e-05  1.015178  0.0
H  H14  1  0.89914591  0.66029392  0.22944789  1  0.058679  1e-05  0.111118  0.033017  -1.1e-05  1.015222  0.0
H  H15  1  0.60811426  0.27185945  0.06892054  1  0.155728  0.00342  0.121139  0.109652  0.001609  1.063467  0.002
H  H16  1  0.39189181  0.72814067  0.93107750  1  0.155643  0.00342  0.12113  0.109617  0.001609  1.063334  0.002
H  H17  1  0.10791852  0.42805225  0.99438468  1  0.129271  0.00292  0.118157  0.094733  0.001393  1.026746  0.002
H  H18  1  0.89209681  0.57196399  0.00563083  1  0.129257  0.00292  0.118128  0.094688  0.001393  1.026841  0.002
H  H19  1  0.93084419  0.25004882  0.03490588  1  0.160986  0.001806  0.112211  0.131203  0.000948  1.017558  0.001
H  H20  1  0.06916600  0.74995027  0.96508953  1  0.1608  0.001806  0.112184  0.131153  0.000947  1.017729  0.001
H  H21  1  0.10369942  0.07638559  0.09144683  1  0.109867  0.000137  0.110788  0.121981  4e-05  1.01002  0.0
H  H22  1  0.89630764  0.92360746  0.90854215  1  0.109876  0.000137  0.110792  0.121978  4e-05  1.010107  0.0
H  H23  1  0.39160468  0.00047319  0.14267262  1  0.471891  0.000323  0.286857  0.241316  0.000202  1.034973  0.0
H  H24  1  0.60839423  0.99952186  0.85731741  1  0.471838  0.000323  0.286859  0.241386  0.000202  1.034852  0.0
H  H25  1  0.83536552  0.89739072  0.15333387  1  0.071801  -3.7e-05  0.090563  0.108133  -6.8e-05  1.024888  0.0
H  H26  1  0.16462681  0.10259673  0.84667432  1  0.07187  -3.7e-05  0.090561  0.108149  -6.8e-05  1.024945  0.0
H  H27  1  0.61365252  0.87996036  0.18526756  1  0.028621  -2.9e-05  0.090136  0.104189  -8.2e-05  1.033342  0.0
H  H28  1  0.38633491  0.12003292  0.81473437  1  0.028814  -2.9e-05  0.090154  0.104242  -8.1e-05  1.033243  0.0
H  H29  1  0.90973081  0.10512982  0.29299848  1  0.008712  7e-06  0.086708  0.078123  6e-06  0.998494  0.0
H  H30  1  0.09025118  0.89486549  0.70700686  1  0.008488  7e-06  0.086751  0.078153  6e-06  0.998436  0.0
H  H31  1  0.68876859  0.09558418  0.32463065  1  0.009392  -7e-06  0.083781  0.076359  -6e-06  1.007321  0.0
H  H32  1  0.31121252  0.90440024  0.67537308  1  0.007735  -7e-06  0.083713  0.076343  -6e-06  1.007224  0.0
H  H33  1  0.98309992  0.89230957  0.33052482  1  0.011274  -6e-05  0.07306  0.065109  -8e-05  1.051741  0.0
H  H34  1  0.01689861  0.10768368  0.66947532  1  0.011172  -6e-05  0.07308  0.065162  -8e-05  1.051698  0.0
H  H35  1  0.76333503  0.88144319  0.36315256  1  -0.009377  -4e-06  0.083769  0.078316  0.0  1.000577  0.0
H  H36  1  0.23666278  0.11854114  0.63684639  1  -0.00927  -4e-06  0.083754  0.078322  1e-06  1.000554  0.0
H  H37  1  0.83637273  0.09022638  0.50085345  1  0.00748  -8e-06  0.081866  0.073111  -7e-06  1.007034  0.0
H  H38  1  0.16362095  0.90975899  0.49914884  1  0.007518  -8e-06  0.081823  0.073077  -7e-06  1.006972  0.0
H  H39  1  0.04583848  0.11707684  0.46297023  1  0.023382  -1e-06  0.082133  0.073023  1e-06  1.020544  0.0
H  H40  1  0.95415808  0.88291054  0.53703414  1  0.023296  -1e-06  0.082096  0.073031  1e-06  1.02047  0.0
H  H41  1  0.34479583  0.60401298  0.28034952  1  0.0609  -5.5e-05  0.099471  0.107394  -6.6e-05  1.029031  0.0
H  H42  1  0.65520255  0.39599616  0.71965526  1  0.060871  -5.5e-05  0.099478  0.107395  -6.6e-05  1.02908  0.0
H  H43  1  0.27276957  0.36423968  0.24350979  1  0.072923  -3.6e-05  0.098819  0.103281  -6e-05  1.033359  0.0
H  H44  1  0.72722049  0.63576949  0.75649632  1  0.07281  -3.6e-05  0.098798  0.103267  -6e-05  1.033308  0.0
H  H45  1  0.46747980  0.81949340  0.40056031  1  0.075915  -3e-05  0.093413  0.087293  -4.4e-05  1.058109  0.0
H  H46  1  0.53252411  0.18051469  0.59944056  1  0.076025  -3e-05  0.093403  0.087298  -4.4e-05  1.058013  0.0
H  H47  1  0.62507423  0.95072960  0.57110428  1  0.027494  -3.6e-05  0.099328  0.101482  -4.5e-05  1.012324  0.0
H  H48  1  0.37492959  0.04927750  0.42889708  1  0.027642  -3.6e-05  0.099307  0.101462  -4.5e-05  1.012419  0.0
H  H49  1  0.28240179  0.15994468  0.29868656  1  0.050987  2.1e-05  0.095495  0.100026  1e-05  1.027966  0.0
H  H50  1  0.71758975  0.84006441  0.70131478  1  0.051308  2.1e-05  0.095526  0.100047  1e-05  1.028004  0.0
C  C51  1  0.67516872  0.27334669  0.85724182  1  0.566052  0.000745  0.151485  0.279929  -0.000414  4.320241  0.006
C  C52  1  0.32482313  0.72666531  0.14275664  1  0.564226  0.000753  0.151601  0.280041  -0.000409  4.319465  0.006
C  C53  1  0.04791637  0.38761559  0.60337390  1  0.285674  -1.1e-05  -0.137626  -0.283129  -1.5e-05  3.934931  0.0
C  C54  1  0.95208458  0.61238842  0.39662026  1  0.285307  -1.1e-05  -0.137666  -0.283296  -1.5e-05  3.934951  0.0
C  C55  1  0.15340930  0.61874364  0.70215127  1  0.24102  8e-06  -0.139356  -0.269505  7e-06  3.892848  0.0
C  C56  1  0.84658494  0.38126550  0.29785312  1  0.241056  8e-06  -0.139356  -0.269499  7e-06  3.892776  0.0
C  C57  1  0.14137885  0.44581269  0.78378204  1  1.397323  -0.00029  0.168178  0.308354  -0.000343  4.120804  0.0
C  C58  1  0.85863398  0.55418439  0.21621181  1  1.397308  -0.00029  0.168281  0.308427  -0.000343  4.120795  0.0
C  C59  1  0.37162920  0.15938042  0.08509760  1  0.405028  0.007168  0.103433  0.20684  0.004721  4.020155  0.006
C  C60  1  0.62837935  0.84061571  0.91489845  1  0.405379  0.007165  0.103339  0.206766  0.004719  4.020129  0.006
C  C61  1  0.45917299  0.26223625  0.06178159  1  0.508291  -0.001224  0.037509  -0.020867  -0.001492  3.882252  -0.001
C  C62  1  0.54084023  0.73776685  0.93821702  1  0.508081  -0.001224  0.037522  -0.020824  -0.001493  3.882234  -0.001
C  C63  1  0.17630250  0.35059856  0.02090510  1  0.446289  -0.000867  0.040419  0.067907  -0.001334  3.937837  0.0
C  C64  1  0.82370814  0.64940756  0.97909669  1  0.513215  -0.001071  0.040409  0.067891  -0.001333  3.938113  0.0
C  C65  1  0.08038546  0.25127019  0.04250849  1  -0.078124  0.007803  -0.080716  -0.106644  0.005152  3.983575  0.006
C  C66  1  0.91963011  0.74872691  0.95748631  1  -0.078096  0.007804  -0.080618  -0.106526  0.005153  3.983535  0.006
C  C67  1  0.17798025  0.15468795  0.07463251  1  -0.016696  -0.004595  -0.072136  -0.136344  -0.005153  3.919242  -0.003
C  C68  1  0.82202850  0.84530906  0.92535744  1  -0.016803  -0.004596  -0.072117  -0.136318  -0.005153  3.919132  -0.003
C  C69  1  0.65518871  0.04593719  0.12852959  1  1.352027  0.000127  0.242198  0.534296  9.7e-05  4.063563  0.0
C  C70  1  0.34481378  0.95405515  0.87147564  1  1.351228  0.000127  0.242116  0.534194  9.7e-05  4.063854  0.0
C  C71  1  0.72367894  0.95167888  0.18655152  1  -0.025652  -3.6e-05  -0.171283  -0.306264  -7.7e-05  3.938262  0.0
C  C72  1  0.27631221  0.04830947  0.81345115  1  -0.025693  -3.6e-05  -0.17129  -0.306443  -7.6e-05  3.938572  0.0
C  C73  1  0.79863048  0.03508753  0.29396343  1  0.024082  7e-06  -0.163734  -0.109845  9e-06  3.923344  0.0
C  C74  1  0.20135374  0.96490084  0.70604000  1  0.027202  7e-06  -0.163715  -0.109766  9e-06  3.923035  0.0
C  C75  1  0.87312455  0.95224015  0.36166700  1  -0.003671  -6e-05  -0.17304  -0.147104  -6.5e-05  3.952399  0.0
C  C76  1  0.12687239  0.04775116  0.63833540  1  -0.004786  -6e-05  -0.173106  -0.147245  -6.5e-05  3.952233  0.0
C  C77  1  0.94998310  0.03866438  0.46687089  1  -0.037705  -4e-06  -0.172709  -0.146865  -4e-06  3.960604  0.0
C  C78  1  0.05001049  0.96132000  0.53313119  1  -0.011981  -4e-06  -0.172496  -0.146613  -4e-06  3.960227  0.0
C  C79  1  0.38124645  0.55504384  0.33801096  1  5e-05  -4.6e-05  -0.085705  -0.11697  -5.4e-05  3.964566  0.0
C  C80  1  0.61875324  0.44496429  0.66199304  1  -0.000413  -4.6e-05  -0.085748  -0.117132  -5.4e-05  3.96476  0.0
C  C81  1  0.34182213  0.42196426  0.31754346  1  -0.049173  -1.5e-05  -0.091322  -0.127231  -3.1e-05  3.983385  0.0
C  C82  1  0.65817347  0.57804488  0.68246177  1  -0.048978  -1.5e-05  -0.091266  -0.127141  -3.1e-05  3.983268  0.0
C  C83  1  0.38910860  0.35511210  0.39200204  1  -0.035295  -2e-06  -0.013094  0.058697  0.0  4.057519  0.0
C  C84  1  0.61088704  0.64489702  0.60800178  1  -0.035459  -2e-06  -0.013141  0.058752  0.0  4.057504  0.0
C  C85  1  0.47998236  0.43055249  0.48926520  1  -0.073222  -3e-06  -0.005255  -0.019889  0.0  3.943691  0.0
C  C86  1  0.52001588  0.56945466  0.51073846  1  -0.014638  -3e-06  -0.005291  -0.020135  0.0  3.943869  0.0
C  C87  1  0.46955862  0.63353922  0.43513016  1  -0.041417  -1e-05  -0.011022  0.068505  -7e-06  4.034612  0.0
C  C88  1  0.53044110  0.36646889  0.56487243  1  -0.040519  -1e-05  -0.011016  0.068524  -7e-06  4.034686  0.0
C  C89  1  0.50794888  0.77121233  0.45849117  1  -0.080049  -1.7e-05  -0.091856  -0.141079  -1.5e-05  3.976809  0.0
C  C90  1  0.49204951  0.22879575  0.54150919  1  -0.080392  -1.7e-05  -0.091855  -0.141088  -1.5e-05  3.976702  0.0
C  C91  1  0.59612396  0.84404928  0.55358962  1  0.047493  -2.3e-05  -0.09319  -0.077018  -2.9e-05  4.042802  0.0
C  C92  1  0.40387281  0.15595582  0.44640998  1  0.047465  -2.3e-05  -0.093208  -0.077039  -2.9e-05  4.04298  0.0
C  C93  1  0.35168831  0.21800229  0.37266279  1  -0.08206  2.1e-05  -0.093786  -0.146885  1.3e-05  3.987229  0.0
C  C94  1  0.64830715  0.78200486  0.62734131  1  -0.082521  2.1e-05  -0.093836  -0.146913  1.3e-05  3.987174  0.0
S  S95  1  0.76418316  0.14571812  0.79009122  1  0.035789  0.000674  -0.142955  -0.33183  -0.001195  2.317658  0.002
S  S96  1  0.23581745  0.85428090  0.20989979  1  0.036824  0.000672  -0.142898  -0.331701  -0.001197  2.318157  0.002
N  N97  1  0.60912591  0.36712809  0.90455335  1  -1.298307  0.072101  -0.418071  -0.490636  0.04828  3.352759  0.06
N  N98  1  0.39087795  0.63285898  0.09543272  1  -1.297417  0.072122  -0.418265  -0.490939  0.048293  3.351818  0.06
N  N99  1  0.11310195  0.48275077  0.69974513  1  -1.196882  -5.1e-05  -0.289605  0.01929  -3.9e-05  3.722608  0.0
N  N100  1  0.88690140  0.51724932  0.30025056  1  -1.19659  -5.1e-05  -0.289675  0.019364  -3.9e-05  3.722513  0.0
N  N101  1  0.36123648  0.35405212  0.03080573  1  -1.189403  0.115652  -0.336761  -0.198426  0.075156  3.647124  0.1
N  N102  1  0.63877531  0.64595103  0.96919556  1  -1.256119  0.115852  -0.336775  -0.198422  0.075155  3.647209  0.1
N  N103  1  0.46886378  0.06425952  0.12020941  1  -1.26678  0.001452  -0.398287  -0.37214  0.000774  3.592891  0.001
N  N104  1  0.53113758  0.93573261  0.87978377  1  -1.266283  0.001452  -0.398224  -0.372178  0.000774  3.592771  0.001
O  O105  1  0.20350001  0.52040947  0.86844299  1  -1.173886  -0.00065  -0.308045  -0.489129  -0.000899  2.295231  0.0
O  O106  1  0.79651133  0.47958665  0.13155192  1  -1.173929  -0.00065  -0.30812  -0.489232  -0.000899  2.295344  0.0
O  O107  1  0.76259802  0.10854983  0.09747347  1  -1.15944  0.000799  -0.286379  -0.485975  0.0005  2.172308  0.001
O  O108  1  0.23742152  0.89144952  0.90253758  1  -1.159151  0.000799  -0.286303  -0.485812  0.0005  2.172666  0.001
