# generated using pymatgen
data_AgH7C5O2
_symmetry_space_group_name_H-M   'P 1'
_cell_length_a   5.90895810
_cell_length_b   8.87762004
_cell_length_c   10.40565904
_cell_angle_alpha   90.00013965
_cell_angle_beta   90.89535513
_cell_angle_gamma   90.00025979
_symmetry_Int_Tables_number   1
_chemical_formula_structural   AgH7C5O2
_chemical_formula_sum   'Ag4 H28 C20 O8'
_cell_volume   545.78805415
_cell_formula_units_Z   4
loop_
 _symmetry_equiv_pos_site_id
 _symmetry_equiv_pos_as_xyz
  1  'x, y, z'
loop_
 _atom_site_type_symbol
 _atom_site_label
 _atom_site_symmetry_multiplicity
 _atom_site_fract_x
 _atom_site_fract_y
 _atom_site_fract_z
 _atom_site_occupancy
 _atom_site_hle17_bader_spin_density
 _atom_site_hle17_ddec_charge
 _atom_site_hle17_ddec_spin_density
 _atom_site_hle17_ddec_sum_bond_order
 _atom_site_hle17_magmom
 _atom_site_hse06_10hf_bader_spin_density
 _atom_site_hse06_10hf_ddec_charge
 _atom_site_hse06_10hf_ddec_spin_density
 _atom_site_hse06_10hf_ddec_sum_bond_order
 _atom_site_hse06_10hf_magmom
 _atom_site_hse06_bader_spin_density
 _atom_site_hse06_ddec_charge
 _atom_site_hse06_ddec_spin_density
 _atom_site_hse06_ddec_sum_bond_order
 _atom_site_hse06_magmom
 _atom_site_pbe_bader_spin_density
 _atom_site_pbe_cm5_charge
 _atom_site_pbe_ddec_charge
 _atom_site_pbe_ddec_spin_density
 _atom_site_pbe_ddec_sum_bond_order
 _atom_site_pbe_magmom
Ag  Ag0  1  0.08962079  0.62558931  0.43795040  1  0  0.589588  0  1.409911  0  0  0.481012  0  1.858098  0  0  0.511573  0  1.80278  0  0  0.429668  0.461095  0  1.894927  0
Ag  Ag1  1  0.58961863  0.87441322  0.43795673  1  0  0.589556  0  1.410016  0  0  0.480974  0  1.858232  0  0  0.511536  0  1.802911  0  0  0.429647  0.461055  0  1.895061  0
Ag  Ag2  1  0.91039978  0.37440912  0.56203593  1  0  0.589573  0  1.409948  0  0  0.481005  0  1.858146  0  0  0.511567  0  1.80283  0  0  0.429682  0.461085  0  1.894977  0
Ag  Ag3  1  0.41039854  0.12559535  0.56203245  1  0  0.589567  0  1.410036  0  0  0.480977  0  1.85825  0  0  0.511542  0  1.802929  0  0  0.429674  0.461053  0  1.895085  0
H  H4  1  0.26075894  0.33894837  0.33471516  1  0  0.09113  0  0.992618  0  0  0.095071  0  1.070301  0  0  0.099087  0  1.066207  0  0  0.096621  0.092381  0  1.072697  0
H  H5  1  0.76077170  0.16105317  0.33471239  1  0  0.091081  0  0.992646  0  0  0.095081  0  1.070264  0  0  0.099094  0  1.066175  0  0  0.09661  0.092391  0  1.072659  0
H  H6  1  0.73924296  0.66104782  0.66528155  1  0  0.091137  0  0.992624  0  0  0.095105  0  1.070264  0  0  0.099123  0  1.066166  0  0  0.096622  0.092416  0  1.072661  0
H  H7  1  0.23920988  0.83895089  0.66528411  1  0  0.091162  0  0.992622  0  0  0.095127  0  1.070266  0  0  0.099146  0  1.066163  0  0  0.096622  0.092436  0  1.072663  0
H  H8  1  0.90663040  0.37127733  0.21134796  1  0  0.11373  0  0.967635  0  0  0.136761  0  1.026166  0  0  0.137149  0  1.02771  0  0  0.093117  0.136513  0  1.024955  0
H  H9  1  0.40664440  0.12872763  0.21135042  1  0  0.113727  0  0.967637  0  0  0.136746  0  1.026189  0  0  0.137135  0  1.027738  0  0  0.093181  0.136499  0  1.024978  0
H  H10  1  0.09336981  0.62872223  0.78864777  1  0  0.113725  0  0.96769  0  0  0.136766  0  1.026191  0  0  0.137151  0  1.02774  0  0  0.093132  0.136518  0  1.024981  0
H  H11  1  0.59334060  0.87126404  0.78864131  1  0  0.113784  0  0.967541  0  0  0.136747  0  1.026174  0  0  0.137135  0  1.02772  0  0  0.093169  0.1365  0  1.024964  0
H  H12  1  0.09841451  0.30410083  0.09767737  1  0  0.107538  0  0.942223  0  0  0.134368  0  0.999147  0  0  0.134825  0  1.000423  0  0  0.094004  0.134213  0  0.997815  0
H  H13  1  0.59842588  0.19590787  0.09768237  1  0  0.107438  0  0.94224  0  0  0.134274  0  0.999186  0  0  0.13473  0  1.000459  0  0  0.093977  0.134118  0  0.997857  0
H  H14  1  0.90159418  0.69590211  0.90231557  1  0  0.107505  0  0.942236  0  0  0.134314  0  0.999195  0  0  0.134768  0  1.000474  0  0  0.093984  0.134162  0  0.997861  0
H  H15  1  0.40156924  0.80408606  0.90231619  1  0  0.107399  0  0.94222  0  0  0.134227  0  0.999185  0  0  0.134685  0  1.000456  0  0  0.093946  0.134071  0  0.997857  0
H  H16  1  0.03239190  0.49942902  0.10169718  1  0  0.093566  0  0.983767  0  0  0.114006  0  1.049707  0  0  0.115362  0  1.049426  0  0  0.086702  0.113233  0  1.04957  0
H  H17  1  0.53239973  0.00058407  0.10169582  1  0  0.093492  0  0.983893  0  0  0.113965  0  1.049817  0  0  0.115325  0  1.049533  0  0  0.086689  0.113191  0  1.04968  0
H  H18  1  0.96761169  0.50057955  0.89830051  1  0  0.093523  0  0.983877  0  0  0.113995  0  1.049787  0  0  0.115354  0  1.049502  0  0  0.086691  0.113222  0  1.04965  0
H  H19  1  0.46760216  0.99941211  0.89830185  1  0  0.093508  0  0.983932  0  0  0.114018  0  1.049789  0  0  0.11538  0  1.049502  0  0  0.086711  0.113245  0  1.04965  0
H  H20  1  0.61710326  0.61077808  0.09105186  1  0  0.103663  0  0.95073  0  0  0.127846  0  1.011402  0  0  0.127936  0  1.012945  0  0  0.090733  0.127354  0  1.010679  0
H  H21  1  0.11710282  0.88921036  0.09105490  1  0  0.103762  0  0.950607  0  0  0.127901  0  1.011318  0  0  0.12799  0  1.012862  0  0  0.090739  0.127407  0  1.010597  0
H  H22  1  0.38290877  0.38921359  0.90894880  1  0  0.103774  0  0.950609  0  0  0.127931  0  1.011293  0  0  0.12802  0  1.012838  0  0  0.090776  0.127437  0  1.010573  0
H  H23  1  0.88289053  0.11078583  0.90895709  1  0  0.103641  0  0.95074  0  0  0.127798  0  1.011445  0  0  0.127888  0  1.01299  0  0  0.090688  0.127306  0  1.010722  0
H  H24  1  0.46220212  0.74546277  0.17856476  1  0  0.113489  0  0.9694  0  0  0.13238  0  1.038138  0  0  0.13405  0  1.037395  0  0  0.090605  0.131489  0  1.037817  0
H  H25  1  0.96218696  0.75453435  0.17857061  1  0  0.113485  0  0.969424  0  0  0.132348  0  1.038211  0  0  0.134026  0  1.037459  0  0  0.09059  0.131456  0  1.03789  0
H  H26  1  0.53781838  0.25453567  0.82143598  1  0  0.113511  0  0.969404  0  0  0.132368  0  1.0382  0  0  0.134041  0  1.03745  0  0  0.090597  0.131476  0  1.037878  0
H  H27  1  0.03780134  0.24546071  0.82143748  1  0  0.113542  0  0.969376  0  0  0.132424  0  1.038129  0  0  0.1341  0  1.037375  0  0  0.090632  0.131532  0  1.037806  0
H  H28  1  0.31869654  0.62310654  0.06882036  1  0  0.09501  0  0.971576  0  0  0.120566  0  1.028769  0  0  0.12132  0  1.029387  0  0  0.08749  0.119847  0  1.028362  0
H  H29  1  0.81869442  0.87689124  0.06882381  1  0  0.094989  0  0.971622  0  0  0.120542  0  1.028814  0  0  0.121296  0  1.029435  0  0  0.087463  0.119823  0  1.02841  0
H  H30  1  0.68131549  0.37689414  0.93118030  1  0  0.095007  0  0.971616  0  0  0.120533  0  1.028835  0  0  0.121286  0  1.029456  0  0  0.08748  0.119814  0  1.028427  0
H  H31  1  0.18130066  0.12310720  0.93118244  1  0  0.095032  0  0.971523  0  0  0.120568  0  1.02875  0  0  0.121321  0  1.029372  0  0  0.087469  0.119847  0  1.028347  0
C  C32  1  0.61627999  0.51247494  0.34542880  1  0  0.624261  0  3.905229  0  0  0.571503  0  4.188082  0  0  0.607108  0  4.184928  0  0  0.198295  0.547354  0  4.190527  0
C  C33  1  0.11628388  0.98754663  0.34543217  1  0  0.62441  0  3.90511  0  0  0.57158  0  4.188057  0  0  0.607182  0  4.184905  0  0  0.198317  0.547433  0  4.190501  0
C  C34  1  0.38372359  0.48753026  0.65457081  1  0  0.624492  0  3.904999  0  0  0.571714  0  4.187872  0  0  0.607317  0  4.184713  0  0  0.198355  0.547564  0  4.190325  0
C  C35  1  0.88370781  0.01246983  0.65457501  1  0  0.624505  0  3.904836  0  0  0.571748  0  4.187701  0  0  0.607351  0  4.184544  0  0  0.198345  0.547599  0  4.190151  0
C  C36  1  0.42848887  0.51814174  0.24645576  1  0  -0.042983  0  3.706914  0  0  -0.012851  0  3.944022  0  0  -0.02106  0  3.967068  0  0  -0.031063  -0.008343  0  3.929388  0
C  C37  1  0.92849454  0.98186445  0.24645670  1  0  -0.042769  0  3.706812  0  0  -0.012657  0  3.943982  0  0  -0.020861  0  3.967021  0  0  -0.031  -0.008152  0  3.929351  0
C  C38  1  0.57151638  0.48185895  0.75354579  1  0  -0.042931  0  3.706807  0  0  -0.012811  0  3.94393  0  0  -0.021013  0  3.966962  0  0  -0.031053  -0.008304  0  3.929299  0
C  C39  1  0.07149713  0.01813736  0.75355431  1  0  -0.042996  0  3.706918  0  0  -0.012906  0  3.944087  0  0  -0.021113  0  3.967128  0  0  -0.031037  -0.0084  0  3.929461  0
C  C40  1  0.25419766  0.41970079  0.25556954  1  0  -0.04684  0  3.703673  0  0  -0.059172  0  3.962131  0  0  -0.057662  0  3.978811  0  0  -0.09378  -0.059766  0  3.950245  0
C  C41  1  0.75421302  0.08030172  0.25556849  1  0  -0.046886  0  3.703747  0  0  -0.059249  0  3.962212  0  0  -0.057743  0  3.978893  0  0  -0.09376  -0.059842  0  3.950325  0
C  C42  1  0.74580423  0.58029652  0.74443005  1  0  -0.046939  0  3.703737  0  0  -0.059267  0  3.962185  0  0  -0.057762  0  3.978866  0  0  -0.09379  -0.059863  0  3.950305  0
C  C43  1  0.24577530  0.91969221  0.74443480  1  0  -0.046899  0  3.703858  0  0  -0.059202  0  3.962273  0  0  -0.057695  0  3.978956  0  0  -0.09371  -0.059796  0  3.950389  0
C  C44  1  0.06304021  0.39995086  0.16173509  1  0  -0.2909  0  3.743413  0  0  -0.369452  0  3.983919  0  0  -0.371584  0  3.995209  0  0  -0.245794  -0.367834  0  3.975386  0
C  C45  1  0.56305236  0.10005676  0.16173695  1  0  -0.290725  0  3.743451  0  0  -0.369326  0  3.983963  0  0  -0.371463  0  3.995256  0  0  -0.245867  -0.36771  0  3.975432  0
C  C46  1  0.93696507  0.60005208  0.83826165  1  0  -0.290835  0  3.743509  0  0  -0.369382  0  3.984002  0  0  -0.371515  0  3.995293  0  0  -0.245804  -0.367766  0  3.975472  0
C  C47  1  0.43694106  0.89994055  0.83826159  1  0  -0.290718  0  3.743496  0  0  -0.369303  0  3.983961  0  0  -0.371443  0  3.995256  0  0  -0.245835  -0.367686  0  3.975428  0
C  C48  1  0.45642361  0.63032038  0.14022817  1  0  -0.303921  0  3.746007  0  0  -0.389967  0  3.982954  0  0  -0.391075  0  3.994719  0  0  -0.246105  -0.388594  0  3.974661  0
C  C49  1  0.95642140  0.86967891  0.14023449  1  0  -0.304075  0  3.746148  0  0  -0.390055  0  3.983062  0  0  -0.391171  0  3.994821  0  0  -0.246103  -0.388681  0  3.97477  0
C  C50  1  0.54358843  0.36967805  0.85977152  1  0  -0.304051  0  3.746047  0  0  -0.390034  0  3.983002  0  0  -0.391146  0  3.994764  0  0  -0.246121  -0.388657  0  3.974703  0
C  C51  1  0.04356857  0.13032065  0.85977747  1  0  -0.304019  0  3.746101  0  0  -0.389991  0  3.983009  0  0  -0.391103  0  3.99477  0  0  -0.246107  -0.388615  0  3.974712  0
O  O52  1  0.74517956  0.62934760  0.35138666  1  0  -0.636613  0  2.170704  0  0  -0.546548  0  2.456201  0  0  -0.579332  0  2.44377  0  0  -0.332702  -0.524546  0  2.464071  0
O  O53  1  0.24517895  0.87065731  0.35138773  1  0  -0.636759  0  2.170282  0  0  -0.546662  0  2.455794  0  0  -0.579451  0  2.443367  0  0  -0.332786  -0.524655  0  2.46366  0
O  O54  1  0.25482400  0.37064633  0.64861679  1  0  -0.636703  0  2.170432  0  0  -0.54665  0  2.455994  0  0  -0.579438  0  2.443565  0  0  -0.332729  -0.52464  0  2.463862  0
O  O55  1  0.75481105  0.12935013  0.64861847  1  0  -0.636636  0  2.170444  0  0  -0.546601  0  2.456001  0  0  -0.579388  0  2.443571  0  0  -0.332706  -0.524596  0  2.46387  0
O  O56  1  0.64177361  0.39355013  0.41209623  1  0  -0.610713  0  2.13196  0  0  -0.53551  0  2.410411  0  0  -0.567685  0  2.400103  0  0  -0.317809  -0.514379  0  2.41654  0
O  O57  1  0.14177900  0.10645696  0.41208412  1  0  -0.610735  0  2.132507  0  0  -0.535459  0  2.410942  0  0  -0.567625  0  2.400631  0  0  -0.317726  -0.514335  0  2.417078  0
O  O58  1  0.35822655  0.60644267  0.58790911  1  0  -0.610816  0  2.132189  0  0  -0.535608  0  2.410662  0  0  -0.567778  0  2.400346  0  0  -0.317806  -0.514479  0  2.4168  0
O  O59  1  0.85821954  0.89355386  0.58790679  1  0  -0.610839  0  2.132083  0  0  -0.535626  0  2.410558  0  0  -0.567797  0  2.400244  0  0  -0.317831  -0.514496  0  2.416695  0
