# generated using pymatgen
data_TlH10C8NO3
_symmetry_space_group_name_H-M   'P 1'
_cell_length_a   8.43379635
_cell_length_b   8.43373271
_cell_length_c   15.03848802
_cell_angle_alpha   98.17708630
_cell_angle_beta   98.17687740
_cell_angle_gamma   103.03691358
_symmetry_Int_Tables_number   1
_chemical_formula_structural   TlH10C8NO3
_chemical_formula_sum   'Tl4 H40 C32 N4 O12'
_cell_volume   1014.50559719
_cell_formula_units_Z   4
loop_
 _symmetry_equiv_pos_site_id
 _symmetry_equiv_pos_as_xyz
  1  'x, y, z'
loop_
 _atom_site_type_symbol
 _atom_site_label
 _atom_site_symmetry_multiplicity
 _atom_site_fract_x
 _atom_site_fract_y
 _atom_site_fract_z
 _atom_site_occupancy
 _atom_site_hle17_bader_spin_density
 _atom_site_hle17_ddec_charge
 _atom_site_hle17_ddec_spin_density
 _atom_site_hle17_ddec_sum_bond_order
 _atom_site_hle17_magmom
 _atom_site_hse06_10hf_bader_spin_density
 _atom_site_hse06_10hf_ddec_charge
 _atom_site_hse06_10hf_ddec_spin_density
 _atom_site_hse06_10hf_ddec_sum_bond_order
 _atom_site_hse06_10hf_magmom
 _atom_site_hse06_bader_spin_density
 _atom_site_hse06_ddec_charge
 _atom_site_hse06_ddec_spin_density
 _atom_site_hse06_ddec_sum_bond_order
 _atom_site_hse06_magmom
 _atom_site_pbe_bader_spin_density
 _atom_site_pbe_cm5_charge
 _atom_site_pbe_ddec_charge
 _atom_site_pbe_ddec_spin_density
 _atom_site_pbe_ddec_sum_bond_order
 _atom_site_pbe_magmom
Tl  Tl0  1  0.36079952  0.68061124  0.99333004  1  0  1.127345  0  2.10149  0  0  1.024818  0  2.56182  0  0  1.069369  0  2.529254  0  0  0.510594  0.993789  0  2.584101  0
Tl  Tl1  1  0.31939066  0.63919946  0.50666897  1  0  1.127356  0  2.101497  0  0  1.024833  0  2.561832  0  0  1.069386  0  2.52927  0  0  0.510585  0.993795  0  2.58411  0
Tl  Tl2  1  0.63920445  0.31939189  0.00666968  1  0  1.127349  0  2.101428  0  0  1.024822  0  2.561752  0  0  1.069371  0  2.529188  0  0  0.510581  0.99379  0  2.584026  0
Tl  Tl3  1  0.68060759  0.36079993  0.49333064  1  0  1.127339  0  2.101464  0  0  1.024811  0  2.561794  0  0  1.06936  0  2.529236  0  0  0.510572  0.993769  0  2.584084  0
H  H4  1  0.37444016  0.93138646  0.68653463  1  0  0.324028  0  0.915393  0  0  0.301005  0  0.983635  0  0  0.310537  0  0.975355  0  0  0.315463  0.294287  0  0.989507  0
H  H5  1  0.06860788  0.62555289  0.81346343  1  0  0.32405  0  0.915406  0  0  0.301018  0  0.983665  0  0  0.310552  0  0.97538  0  0  0.315452  0.294298  0  0.98954  0
H  H6  1  0.62555744  0.06861042  0.31346804  1  0  0.323987  0  0.915482  0  0  0.300977  0  0.983716  0  0  0.310508  0  0.97544  0  0  0.315467  0.294258  0  0.989587  0
H  H7  1  0.93139702  0.37445396  0.18653534  1  0  0.324133  0  0.915296  0  0  0.301104  0  0.983559  0  0  0.310636  0  0.975275  0  0  0.315506  0.294384  0  0.989435  0
H  H8  1  0.45689773  0.89183351  0.88292249  1  0  0.136458  0  1.006917  0  0  0.152293  0  1.070727  0  0  0.154196  0  1.072978  0  0  0.080604  0.15087  0  1.069283  0
H  H9  1  0.10816989  0.54310564  0.61707908  1  0  0.136438  0  1.006952  0  0  0.15228  0  1.070758  0  0  0.154183  0  1.07301  0  0  0.080602  0.150854  0  1.069317  0
H  H10  1  0.54310710  0.10816344  0.11707680  1  0  0.136485  0  1.006858  0  0  0.152295  0  1.070693  0  0  0.154197  0  1.072946  0  0  0.080595  0.150872  0  1.069246  0
H  H11  1  0.89183074  0.45689375  0.38292206  1  0  0.136459  0  1.006953  0  0  0.152301  0  1.070751  0  0  0.154204  0  1.073003  0  0  0.080599  0.150876  0  1.069306  0
H  H12  1  0.53841960  0.71364435  0.85948508  1  0  0.154301  0  0.982535  0  0  0.171735  0  1.036911  0  0  0.174126  0  1.039057  0  0  0.086273  0.16999  0  1.035533  0
H  H13  1  0.28635665  0.46158151  0.64051593  1  0  0.154266  0  0.982547  0  0  0.171717  0  1.036906  0  0  0.174109  0  1.039052  0  0  0.086272  0.169968  0  1.035535  0
H  H14  1  0.46158494  0.28635136  0.14051408  1  0  0.154336  0  0.982519  0  0  0.171767  0  1.036892  0  0  0.174158  0  1.039038  0  0  0.086285  0.170019  0  1.035511  0
H  H15  1  0.71364700  0.53842037  0.35948500  1  0  0.154299  0  0.982563  0  0  0.171736  0  1.036936  0  0  0.174127  0  1.039082  0  0  0.086266  0.169988  0  1.035559  0
H  H16  1  0.63814368  0.87410011  0.95671943  1  0  0.155804  0  1.006252  0  0  0.170666  0  1.067786  0  0  0.173352  0  1.069652  0  0  0.085572  0.168665  0  1.066667  0
H  H17  1  0.12590167  0.36185617  0.54328291  1  0  0.155799  0  1.00625  0  0  0.170673  0  1.067785  0  0  0.173359  0  1.06965  0  0  0.085547  0.168667  0  1.066667  0
H  H18  1  0.36186146  0.12589807  0.04328065  1  0  0.155821  0  1.006304  0  0  0.170708  0  1.067808  0  0  0.173394  0  1.069671  0  0  0.085585  0.1687  0  1.066695  0
H  H19  1  0.87410016  0.63814322  0.45671899  1  0  0.155815  0  1.006258  0  0  0.170687  0  1.067783  0  0  0.173374  0  1.069646  0  0  0.085574  0.168683  0  1.066671  0
H  H20  1  0.29597561  0.62470059  0.15902184  1  0  0.133198  0  1.006061  0  0  0.150399  0  1.068537  0  0  0.152352  0  1.070504  0  0  0.078735  0.148962  0  1.067256  0
H  H21  1  0.37530078  0.70402504  0.34097745  1  0  0.133175  0  1.006087  0  0  0.150374  0  1.068563  0  0  0.152327  0  1.07053  0  0  0.078733  0.148933  0  1.067292  0
H  H22  1  0.70402686  0.37530129  0.84097766  1  0  0.133209  0  1.006052  0  0  0.150406  0  1.068537  0  0  0.15236  0  1.070503  0  0  0.078749  0.148969  0  1.067262  0
H  H23  1  0.62470136  0.29597559  0.65902325  1  0  0.133177  0  1.00609  0  0  0.150376  0  1.068569  0  0  0.152329  0  1.070536  0  0  0.078733  0.148937  0  1.067294  0
H  H24  1  0.18768220  0.45077104  0.07203899  1  0  0.158152  0  0.976846  0  0  0.178735  0  1.027198  0  0  0.181344  0  1.029041  0  0  0.091019  0.17684  0  1.026026  0
H  H25  1  0.54923052  0.81231661  0.42796078  1  0  0.158132  0  0.976851  0  0  0.178716  0  1.027206  0  0  0.181326  0  1.029048  0  0  0.091009  0.176819  0  1.026039  0
H  H26  1  0.81232087  0.54923332  0.92796076  1  0  0.158086  0  0.976875  0  0  0.178683  0  1.027219  0  0  0.181292  0  1.029063  0  0  0.090994  0.17679  0  1.026048  0
H  H27  1  0.45076949  0.18768029  0.57204143  1  0  0.158111  0  0.97689  0  0  0.178696  0  1.02724  0  0  0.181305  0  1.029083  0  0  0.09099  0.1768  0  1.026076  0
H  H28  1  0.10623792  0.62983700  0.08839368  1  0  0.159018  0  0.992986  0  0  0.176024  0  1.050876  0  0  0.178737  0  1.052612  0  0  0.086913  0.174054  0  1.04976  0
H  H29  1  0.37016505  0.89376441  0.41160727  1  0  0.159017  0  0.992969  0  0  0.176022  0  1.050867  0  0  0.178737  0  1.052601  0  0  0.086924  0.174054  0  1.049746  0
H  H30  1  0.89376182  0.37016362  0.91160748  1  0  0.159028  0  0.992971  0  0  0.176037  0  1.050859  0  0  0.17875  0  1.052595  0  0  0.086922  0.174067  0  1.049741  0
H  H31  1  0.62983710  0.10623623  0.58839277  1  0  0.159003  0  0.992999  0  0  0.176007  0  1.050894  0  0  0.178721  0  1.052629  0  0  0.086905  0.174035  0  1.049775  0
H  H32  1  0.43188231  0.14551856  0.81343723  1  0  0.074694  0  0.956039  0  0  0.084705  0  1.02579  0  0  0.087952  0  1.021176  0  0  0.12569  0.082212  0  1.029177  0
H  H33  1  0.85447454  0.56810969  0.68656339  1  0  0.07469  0  0.956175  0  0  0.08468  0  1.025937  0  0  0.087934  0  1.021317  0  0  0.125698  0.082189  0  1.029321  0
H  H34  1  0.56811353  0.85448081  0.18656351  1  0  0.07474  0  0.956008  0  0  0.084739  0  1.025766  0  0  0.087994  0  1.021146  0  0  0.125713  0.082242  0  1.029157  0
H  H35  1  0.14552912  0.43189220  0.31343687  1  0  0.074741  0  0.956069  0  0  0.084706  0  1.02585  0  0  0.08796  0  1.02123  0  0  0.125693  0.082216  0  1.029223  0
H  H36  1  0.92989706  0.03979228  0.57790717  1  0  0.135028  0  0.947671  0  0  0.142822  0  1.005878  0  0  0.147321  0  1.00431  0  0  0.110769  0.139652  0  1.007159  0
H  H37  1  0.96021052  0.07010565  0.92209072  1  0  0.135031  0  0.947648  0  0  0.142834  0  1.005841  0  0  0.147335  0  1.004271  0  0  0.110756  0.139663  0  1.007133  0
H  H38  1  0.07010087  0.96020585  0.42209431  1  0  0.134973  0  0.947691  0  0  0.142745  0  1.005936  0  0  0.147245  0  1.004367  0  0  0.110733  0.139575  0  1.00722  0
H  H39  1  0.03978865  0.92989746  0.07790861  1  0  0.134991  0  0.947716  0  0  0.142807  0  1.005904  0  0  0.147308  0  1.004333  0  0  0.110752  0.139636  0  1.007198  0
H  H40  1  0.98418546  0.27330131  0.70951718  1  0  0.095931  0  0.932448  0  0  0.109682  0  0.987602  0  0  0.112486  0  0.985145  0  0  0.110656  0.107599  0  0.989374  0
H  H41  1  0.72670252  0.01581752  0.79048094  1  0  0.095912  0  0.932383  0  0  0.109635  0  0.987583  0  0  0.11244  0  0.985126  0  0  0.110626  0.107548  0  0.989362  0
H  H42  1  0.01581251  0.72670180  0.29048204  1  0  0.095921  0  0.932561  0  0  0.109658  0  0.987727  0  0  0.112461  0  0.98527  0  0  0.110653  0.107576  0  0.989503  0
H  H43  1  0.27329151  0.98417938  0.20951879  1  0  0.095908  0  0.932421  0  0  0.109633  0  0.987613  0  0  0.112436  0  0.985157  0  0  0.110629  0.107546  0  0.989391  0
C  C44  1  0.52024598  0.80694608  0.91285212  1  0  -0.640232  0  3.517641  0  0  -0.686375  0  3.764471  0  0  -0.702646  0  3.773763  0  0  -0.334169  -0.675225  0  3.758392  0
C  C45  1  0.19305541  0.47975560  0.58714904  1  0  -0.640168  0  3.517648  0  0  -0.686346  0  3.764454  0  0  -0.702619  0  3.773745  0  0  -0.334151  -0.67519  0  3.758374  0
C  C46  1  0.47975676  0.19305209  0.08714776  1  0  -0.640328  0  3.517624  0  0  -0.686458  0  3.764461  0  0  -0.70273  0  3.773751  0  0  -0.33419  -0.675301  0  3.758373  0
C  C47  1  0.80694584  0.52024626  0.41285235  1  0  -0.640269  0  3.517718  0  0  -0.686431  0  3.764521  0  0  -0.702704  0  3.773809  0  0  -0.334183  -0.675274  0  3.758441  0
C  C48  1  0.21900920  0.58583726  0.09073799  1  0  -0.643762  0  3.51512  0  0  -0.691748  0  3.763128  0  0  -0.707534  0  3.771196  0  0  -0.336509  -0.680904  0  3.757799  0
C  C49  1  0.41416370  0.78098989  0.40926183  1  0  -0.643723  0  3.515139  0  0  -0.691705  0  3.763146  0  0  -0.707492  0  3.771211  0  0  -0.336512  -0.680862  0  3.757825  0
C  C50  1  0.78099175  0.41416338  0.90926194  1  0  -0.643689  0  3.51512  0  0  -0.691692  0  3.763136  0  0  -0.707478  0  3.771204  0  0  -0.336489  -0.680856  0  3.757813  0
C  C51  1  0.58583663  0.21900827  0.59073852  1  0  -0.64365  0  3.515148  0  0  -0.691629  0  3.763155  0  0  -0.707415  0  3.771221  0  0  -0.336447  -0.680785  0  3.757835  0
C  C52  1  0.25302919  0.37420948  0.84789050  1  0  0.654674  0  3.957938  0  0  0.606476  0  4.246784  0  0  0.641753  0  4.239758  0  0  0.20791  0.582623  0  4.250696  0
C  C53  1  0.62579124  0.74696686  0.65210936  1  0  0.654637  0  3.957872  0  0  0.60646  0  4.246691  0  0  0.641736  0  4.239663  0  0  0.207912  0.58261  0  4.250594  0
C  C54  1  0.74696728  0.62579238  0.15210850  1  0  0.6548  0  3.957744  0  0  0.606619  0  4.246546  0  0  0.641895  0  4.239516  0  0  0.207989  0.582771  0  4.250458  0
C  C55  1  0.37420638  0.25303005  0.34789132  1  0  0.654718  0  3.957836  0  0  0.606536  0  4.246662  0  0  0.641811  0  4.239633  0  0  0.207965  0.58269  0  4.250565  0
C  C56  1  0.21269602  0.22883202  0.77239789  1  0  -0.169484  0  3.813056  0  0  -0.150767  0  4.065201  0  0  -0.167365  0  4.09021  0  0  -0.03644  -0.140197  0  4.048378  0
C  C57  1  0.77116794  0.78730314  0.72760143  1  0  -0.169415  0  3.813042  0  0  -0.150712  0  4.065164  0  0  -0.16731  0  4.090175  0  0  -0.036416  -0.140139  0  4.04833  0
C  C58  1  0.78730554  0.77117109  0.22760297  1  0  -0.169487  0  3.813154  0  0  -0.150747  0  4.065251  0  0  -0.167343  0  4.09026  0  0  -0.03643  -0.140187  0  4.048437  0
C  C59  1  0.22882911  0.21269625  0.27239808  1  0  -0.16943  0  3.813026  0  0  -0.150738  0  4.065143  0  0  -0.167335  0  4.090153  0  0  -0.036423  -0.140171  0  4.048309  0
C  C60  1  0.31819329  0.12662797  0.76436949  1  0  0.152897  0  3.683494  0  0  0.100915  0  3.94024  0  0  0.114325  0  3.954879  0  0  0.061566  0.092497  0  3.930082  0
C  C61  1  0.87337095  0.68179662  0.73562951  1  0  0.152743  0  3.68362  0  0  0.100793  0  3.940344  0  0  0.114199  0  3.954977  0  0  0.0615  0.092379  0  3.93017  0
C  C62  1  0.68180704  0.87337019  0.23563086  1  0  0.152805  0  3.68338  0  0  0.100839  0  3.94014  0  0  0.114241  0  3.954772  0  0  0.061519  0.092427  0  3.929975  0
C  C63  1  0.12663269  0.31820033  0.26436968  1  0  0.152786  0  3.683492  0  0  0.100895  0  3.94019  0  0  0.114299  0  3.954824  0  0  0.061576  0.092483  0  3.930012  0
C  C64  1  0.14882241  0.95984327  0.62361831  1  0  0.550521  0  3.85778  0  0  0.512583  0  4.135488  0  0  0.541122  0  4.138258  0  0  0.221313  0.493631  0  4.13284  0
C  C65  1  0.04015802  0.85117526  0.87638088  1  0  0.550353  0  3.858137  0  0  0.512423  0  4.135824  0  0  0.540961  0  4.138597  0  0  0.221256  0.493478  0  4.133172  0
C  C66  1  0.85117581  0.04015117  0.37638155  1  0  0.550348  0  3.857991  0  0  0.512474  0  4.13563  0  0  0.541018  0  4.138392  0  0  0.221225  0.493516  0  4.13299  0
C  C67  1  0.95984359  0.14882789  0.12361533  1  0  0.550359  0  3.85828  0  0  0.512412  0  4.136013  0  0  0.540953  0  4.138783  0  0  0.221243  0.493453  0  4.13338  0
C  C68  1  0.03665308  0.06378498  0.63239268  1  0  -0.240116  0  3.678637  0  0  -0.255227  0  3.934646  0  0  -0.268957  0  3.952538  0  0  -0.095154  -0.246554  0  3.922729  0
C  C69  1  0.93621290  0.96334753  0.86760460  1  0  -0.240099  0  3.678632  0  0  -0.255204  0  3.934591  0  0  -0.268935  0  3.952485  0  0  -0.095135  -0.246529  0  3.922677  0
C  C70  1  0.96334546  0.93621563  0.36760905  1  0  -0.239965  0  3.678529  0  0  -0.255062  0  3.934498  0  0  -0.268795  0  3.952391  0  0  -0.095076  -0.246384  0  3.922583  0
C  C71  1  0.06378479  0.03665436  0.13239251  1  0  -0.240114  0  3.678616  0  0  -0.25525  0  3.934625  0  0  -0.268982  0  3.95252  0  0  -0.095176  -0.246576  0  3.922722  0
C  C72  1  0.06873731  0.19339413  0.70389038  1  0  0.018842  0  3.750315  0  0  -0.009783  0  4.004121  0  0  -0.000672  0  4.021048  0  0  -0.062496  -0.015277  0  3.992322  0
C  C73  1  0.80660695  0.93126124  0.79610773  1  0  0.018839  0  3.750362  0  0  -0.009772  0  4.00416  0  0  -0.000661  0  4.021089  0  0  -0.062524  -0.015264  0  3.99236  0
C  C74  1  0.93126244  0.80660158  0.29610706  1  0  0.018909  0  3.750259  0  0  -0.009721  0  4.004039  0  0  -0.000606  0  4.020962  0  0  -0.062469  -0.015219  0  3.99225  0
C  C75  1  0.19339188  0.06873568  0.20389239  1  0  0.018917  0  3.750233  0  0  -0.009683  0  4.004046  0  0  -0.000571  0  4.020975  0  0  -0.062473  -0.015172  0  3.992245  0
N  N76  1  0.28635401  0.99848181  0.69400195  1  0  -0.364191  0  3.359682  0  0  -0.292562  0  3.586619  0  0  -0.314135  0  3.596763  0  0  -0.368043  -0.278195  0  3.579389  0
N  N77  1  0.00151082  0.71364069  0.80599555  1  0  -0.364047  0  3.359777  0  0  -0.29242  0  3.586681  0  0  -0.313995  0  3.596831  0  0  -0.367975  -0.278059  0  3.579451  0
N  N78  1  0.71364123  0.00152001  0.30600027  1  0  -0.364006  0  3.359492  0  0  -0.292449  0  3.586463  0  0  -0.314024  0  3.596606  0  0  -0.367965  -0.278082  0  3.579233  0
N  N79  1  0.99849137  0.28636492  0.19400290  1  0  -0.36419  0  3.359629  0  0  -0.292595  0  3.586554  0  0  -0.31417  0  3.596704  0  0  -0.36808  -0.278227  0  3.579321  0
O  O80  1  0.16119549  0.47565820  0.84667369  1  0  -0.663433  0  1.985001  0  0  -0.60416  0  2.215064  0  0  -0.630653  0  2.20535  0  0  -0.319647  -0.585559  0  2.221009  0
O  O81  1  0.52434398  0.83880654  0.65332626  1  0  -0.663402  0  1.984909  0  0  -0.604137  0  2.214954  0  0  -0.630629  0  2.205243  0  0  -0.319636  -0.585538  0  2.220895  0
O  O82  1  0.83880459  0.52434369  0.15332428  1  0  -0.663483  0  1.984978  0  0  -0.60421  0  2.215022  0  0  -0.630704  0  2.205306  0  0  -0.319679  -0.585611  0  2.220967  0
O  O83  1  0.47565274  0.16119158  0.34667578  1  0  -0.663474  0  1.985017  0  0  -0.604207  0  2.215063  0  0  -0.630698  0  2.205349  0  0  -0.3197  -0.585612  0  2.221009  0
O  O84  1  0.37811691  0.39395688  0.91068423  1  0  -0.686872  0  2.025807  0  0  -0.620058  0  2.267764  0  0  -0.649986  0  2.260206  0  0  -0.312447  -0.599085  0  2.272075  0
O  O85  1  0.60604049  0.62187775  0.58931584  1  0  -0.686892  0  2.025808  0  0  -0.62008  0  2.267753  0  0  -0.650011  0  2.260204  0  0  -0.312467  -0.599118  0  2.272079  0
O  O86  1  0.62187684  0.60604372  0.08931578  1  0  -0.68694  0  2.0257  0  0  -0.620143  0  2.267671  0  0  -0.650068  0  2.260107  0  0  -0.31247  -0.599172  0  2.27198  0
O  O87  1  0.39395806  0.37812288  0.41068456  1  0  -0.686912  0  2.025765  0  0  -0.620105  0  2.267722  0  0  -0.650033  0  2.260167  0  0  -0.312466  -0.599136  0  2.27203  0
O  O88  1  0.13189820  0.84231194  0.55850409  1  0  -0.622817  0  1.972338  0  0  -0.572197  0  2.205344  0  0  -0.597044  0  2.199198  0  0  -0.30816  -0.55467  0  2.208796  0
O  O89  1  0.15768256  0.86809757  0.94149166  1  0  -0.622688  0  1.972604  0  0  -0.572079  0  2.205613  0  0  -0.596925  0  2.199469  0  0  -0.308078  -0.554562  0  2.209071  0
O  O90  1  0.86809883  0.15768742  0.44149808  1  0  -0.622871  0  1.972341  0  0  -0.572263  0  2.205313  0  0  -0.597114  0  2.199161  0  0  -0.308203  -0.554733  0  2.208767  0
O  O91  1  0.84232476  0.13190931  0.05850598  1  0  -0.62273  0  1.972767  0  0  -0.572083  0  2.205759  0  0  -0.596928  0  2.199614  0  0  -0.308078  -0.554566  0  2.209224  0
