# generated using pymatgen
data_Ag2H3C7NO4
_symmetry_space_group_name_H-M   'P 1'
_cell_length_a   9.96143483
_cell_length_b   9.96140641
_cell_length_c   10.63685809
_cell_angle_alpha   108.18496237
_cell_angle_beta   108.18515044
_cell_angle_gamma   100.30270931
_symmetry_Int_Tables_number   1
_chemical_formula_structural   Ag2H3C7NO4
_chemical_formula_sum   'Ag8 H12 C28 N4 O16'
_cell_volume   906.97447012
_cell_formula_units_Z   4
loop_
 _symmetry_equiv_pos_site_id
 _symmetry_equiv_pos_as_xyz
  1  'x, y, z'
loop_
 _atom_site_type_symbol
 _atom_site_label
 _atom_site_symmetry_multiplicity
 _atom_site_fract_x
 _atom_site_fract_y
 _atom_site_fract_z
 _atom_site_occupancy
 _atom_site_pbe_bader_charge
 _atom_site_pbe_bader_spin_density
 _atom_site_pbe_cm5_charge
 _atom_site_pbe_ddec_charge
 _atom_site_pbe_ddec_spin_density
 _atom_site_pbe_ddec_sum_bond_order
 _atom_site_pbe_magmom
Ag  Ag0  1  0.89186504  0.26309107  0.42364066  1  0.580565  0  0.406811  0.4207  0  1.892129  0
Ag  Ag1  1  0.51020714  0.21105337  0.14093904  1  0.598233  0  0.408952  0.371917  0  2.07765  0
Ag  Ag2  1  0.73690575  0.10813820  0.07635527  1  0.581797  0  0.406832  0.420735  0  1.892101  0
Ag  Ag3  1  0.78894800  0.48979445  0.35906183  1  0.598709  0  0.40893  0.371883  0  2.077647  0
Ag  Ag4  1  0.10813957  0.73690524  0.57635446  1  0.581793  0  0.406828  0.420707  0  1.892161  0
Ag  Ag5  1  0.48979310  0.78894798  0.85906475  1  0.598244  0  0.408965  0.371906  0  2.077664  0
Ag  Ag6  1  0.26308894  0.89186151  0.92364265  1  0.580598  0  0.406841  0.420749  0  1.892078  0
Ag  Ag7  1  0.21105443  0.51020438  0.64093527  1  0.59866  0  0.408952  0.371912  0  2.077677  0
H  H8  1  0.23399779  0.24234542  0.23919291  1  0.11581  0  0.123265  0.104228  0  0.975766  0
H  H9  1  0.09545801  0.59958406  0.14952998  1  0.151096  0  0.119445  0.133898  0  0.976359  0
H  H10  1  0.41739272  0.43136395  0.01078977  1  0.14206  0  0.115926  0.095734  0  1.047223  0
H  H11  1  0.75765269  0.76601550  0.26080515  1  0.115835  0  0.123234  0.104192  0  0.975695  0
H  H12  1  0.40040746  0.90454246  0.35046712  1  0.150884  0  0.119416  0.133881  0  0.976325  0
H  H13  1  0.56864202  0.58262012  0.48920950  1  0.141966  0  0.115908  0.095704  0  1.047291  0
H  H14  1  0.76601237  0.75765252  0.76080620  1  0.115806  0  0.123241  0.104191  0  0.975713  0
H  H15  1  0.90454327  0.40041126  0.85046953  1  0.150911  0  0.119432  0.133911  0  0.976328  0
H  H16  1  0.58261865  0.56864386  0.98920975  1  0.141947  0  0.115883  0.095678  0  1.047321  0
H  H17  1  0.24233989  0.23399415  0.73919600  1  0.115709  0  0.123268  0.104227  0  0.975679  0
H  H18  1  0.59958274  0.09545063  0.64953319  1  0.150876  0  0.119432  0.133901  0  0.976367  0
H  H19  1  0.43136157  0.41738433  0.51079147  1  0.141951  0  0.115893  0.095668  0  1.047261  0
C  C20  1  0.23858389  0.32342340  0.19039840  1  0.498368  0  0.059963  0.086108  0  3.876326  0
C  C21  1  0.14906880  0.41626055  0.19901560  1  0.051816  0  -0.008942  -0.057689  0  3.93268  0
C  C22  1  0.04562131  0.40293202  0.27368360  1  1.567895  0  0.200237  0.560986  0  4.218666  0
C  C23  1  0.15998922  0.52235908  0.13919154  1  -0.054294  0  -0.046292  -0.04245  0  3.862637  0
C  C24  1  0.25664785  0.52880143  0.06885106  1  0.016368  0  -0.009456  -0.073814  0  3.948306  0
C  C25  1  0.33982334  0.42943378  0.06333556  1  0.476767  0  0.054974  0.087995  0  3.873618  0
C  C26  1  0.28059925  0.64188426  0.00518735  1  1.570771  0  0.200889  0.567398  0  4.198632  0
C  C27  1  0.67658226  0.76143147  0.30960797  1  0.498278  0  0.059967  0.086112  0  3.876509  0
C  C28  1  0.58373155  0.85093173  0.30098213  1  0.052012  0  -0.008954  -0.05772  0  3.932803  0
C  C29  1  0.59706659  0.95438172  0.22631847  1  1.568396  0  0.200213  0.560957  0  4.218683  0
C  C30  1  0.47763652  0.84001365  0.36081524  1  -0.054304  0  -0.046227  -0.042398  0  3.862689  0
C  C31  1  0.47119552  0.74335629  0.43114725  1  0.016465  0  -0.009505  -0.073814  0  3.948411  0
C  C32  1  0.57056836  0.66018381  0.43666737  1  0.47687  0  0.054938  0.087939  0  3.873503  0
C  C33  1  0.35811865  0.71940327  0.49481677  1  1.570738  0  0.200892  0.567401  0  4.198682  0
C  C34  1  0.76143299  0.67658287  0.80960886  1  0.498316  0  0.059961  0.086143  0  3.876539  0
C  C35  1  0.85093246  0.58373265  0.80098328  1  0.052051  0  -0.008924  -0.057683  0  3.932829  0
C  C36  1  0.95438001  0.59706648  0.72631590  1  1.568348  0  0.200195  0.560878  0  4.218699  0
C  C37  1  0.84001543  0.47764040  0.86081675  1  -0.054319  0  -0.046269  -0.042492  0  3.86272  0
C  C38  1  0.74335459  0.47119845  0.93114917  1  0.016313  0  -0.009472  -0.073715  0  3.948237  0
C  C39  1  0.66018470  0.57057305  0.93667022  1  0.476849  0  0.054904  0.0879  0  3.873476  0
C  C40  1  0.71939987  0.35811570  0.99481288  1  1.570742  0  0.200953  0.567432  0  4.198652  0
C  C41  1  0.32341362  0.23857598  0.69039445  1  0.498423  0  0.05995  0.086061  0  3.876359  0
C  C42  1  0.41626094  0.14906838  0.69901809  1  0.051702  0  -0.008962  -0.057672  0  3.932381  0
C  C43  1  0.40293031  0.04561759  0.77368374  1  1.568225  0  0.200278  0.560988  0  4.218638  0
C  C44  1  0.52235813  0.15998287  0.63918644  1  -0.054213  0  -0.04628  -0.042482  0  3.86253  0
C  C45  1  0.52879807  0.25664414  0.56885057  1  0.016591  0  -0.009408  -0.07376  0  3.948284  0
C  C46  1  0.42942743  0.33981517  0.56333348  1  0.476791  0  0.05495  0.08802  0  3.873496  0
C  C47  1  0.64187822  0.28059285  0.50518262  1  1.570968  0  0.20091  0.567453  0  4.198572  0
N  N48  1  0.33334678  0.33046892  0.12462167  1  -1.22861  0  -0.333996  -0.200914  0  3.53629  0
N  N49  1  0.66953430  0.66666447  0.37537636  1  -1.228336  0  -0.333898  -0.200809  0  3.536215  0
N  N50  1  0.66666457  0.66953678  0.87537723  1  -1.228365  0  -0.333887  -0.200843  0  3.536157  0
N  N51  1  0.33046268  0.33334226  0.62462334  1  -1.228479  0  -0.333946  -0.200861  0  3.536358  0
O  O52  1  0.03652034  0.29538492  0.31567461  1  -1.114934  0  -0.328822  -0.521439  0  2.415717  0
O  O53  1  0.97697379  0.49839015  0.28846861  1  -1.117412  0  -0.320327  -0.51727  0  2.444749  0
O  O54  1  0.21272386  0.73889726  0.02126537  1  -1.114585  0  -0.318129  -0.468205  0  2.297253  0
O  O55  1  0.37017885  0.63205316  0.94211366  1  -1.140892  0  -0.324525  -0.547199  0  2.4069  0
O  O56  1  0.70460634  0.96347962  0.18432084  1  -1.115391  0  -0.328809  -0.5214  0  2.415683  0
O  O57  1  0.50160763  0.02303075  0.21153241  1  -1.117485  0  -0.320299  -0.517258  0  2.444699  0
O  O58  1  0.26109523  0.78727670  0.47873012  1  -1.114618  0  -0.318174  -0.468244  0  2.297115  0
O  O59  1  0.36794628  0.62982145  0.55788263  1  -1.140855  0  -0.324465  -0.547146  0  2.407083  0
O  O60  1  0.96348200  0.70460648  0.68432030  1  -1.115392  0  -0.328829  -0.521419  0  2.415783  0
O  O61  1  0.02302526  0.50160345  0.71153162  1  -1.117471  0  -0.320311  -0.517206  0  2.444602  0
O  O62  1  0.78727743  0.26109912  0.97873069  1  -1.11457  0  -0.318194  -0.468271  0  2.297166  0
O  O63  1  0.62982138  0.36794712  0.05788135  1  -1.140873  0  -0.324471  -0.547147  0  2.407019  0
O  O64  1  0.29538614  0.03651943  0.81567718  1  -1.115024  0  -0.328866  -0.52147  0  2.415688  0
O  O65  1  0.49838709  0.97697107  0.78847366  1  -1.117431  0  -0.320333  -0.517254  0  2.444881  0
O  O66  1  0.73889496  0.21271639  0.52126268  1  -1.114584  0  -0.31813  -0.468193  0  2.297153  0
O  O67  1  0.63204955  0.37018177  0.44211947  1  -1.141074  0  -0.324528  -0.547256  0  2.406843  0
