# generated using pymatgen
data_CsH10C15NO4
_symmetry_space_group_name_H-M   'P 1'
_cell_length_a   6.58576082
_cell_length_b   9.14423135
_cell_length_c   11.28436819
_cell_angle_alpha   95.70558357
_cell_angle_beta   89.99976257
_cell_angle_gamma   89.99974496
_symmetry_Int_Tables_number   1
_chemical_formula_structural   CsH10C15NO4
_chemical_formula_sum   'Cs2 H20 C30 N2 O8'
_cell_volume   676.19742971
_cell_formula_units_Z   2
loop_
 _symmetry_equiv_pos_site_id
 _symmetry_equiv_pos_as_xyz
  1  'x, y, z'
loop_
 _atom_site_type_symbol
 _atom_site_label
 _atom_site_symmetry_multiplicity
 _atom_site_fract_x
 _atom_site_fract_y
 _atom_site_fract_z
 _atom_site_occupancy
 _atom_site_hle17_bader_spin_density
 _atom_site_hle17_ddec_charge
 _atom_site_hle17_ddec_spin_density
 _atom_site_hle17_ddec_sum_bond_order
 _atom_site_hle17_magmom
 _atom_site_hse06_10hf_bader_spin_density
 _atom_site_hse06_10hf_ddec_charge
 _atom_site_hse06_10hf_ddec_spin_density
 _atom_site_hse06_10hf_ddec_sum_bond_order
 _atom_site_hse06_10hf_magmom
 _atom_site_hse06_bader_spin_density
 _atom_site_hse06_ddec_charge
 _atom_site_hse06_ddec_spin_density
 _atom_site_hse06_ddec_sum_bond_order
 _atom_site_hse06_magmom
 _atom_site_pbe_bader_spin_density
 _atom_site_pbe_cm5_charge
 _atom_site_pbe_ddec_charge
 _atom_site_pbe_ddec_spin_density
 _atom_site_pbe_ddec_sum_bond_order
 _atom_site_pbe_magmom
Cs  Cs0  1  0.47466365  0.37694878  0.90636959  1  0  0.943768  0  0.598349  0  0  0.891652  0  0.837429  0  0  0.907841  0  0.813853  0  0  0.889111  0.878086  0  0.855888  0
Cs  Cs1  1  0.97466266  0.62305175  0.09362893  1  0  0.943774  0  0.598357  0  0  0.891562  0  0.837541  0  0  0.907847  0  0.813864  0  0  0.889137  0.878104  0  0.855904  0
H  H2  1  0.47796957  0.19819165  0.54529963  1  0  0.100625  0  0.935441  0  0  0.112906  0  0.993551  0  0  0.116154  0  0.991103  0  0  0.111555  0.108793  0  0.998905  0
H  H3  1  0.97797101  0.80180888  0.45469977  1  0  0.10066  0  0.935398  0  0  0.112917  0  0.993538  0  0  0.116169  0  0.991083  0  0  0.111554  0.108807  0  0.998891  0
H  H4  1  0.46459916  0.17854511  0.32067469  1  0  0.110253  0  0.938342  0  0  0.120881  0  0.997321  0  0  0.124335  0  0.996063  0  0  0.106909  0.117139  0  1.001003  0
H  H5  1  0.96460192  0.82145547  0.67932563  1  0  0.110268  0  0.938355  0  0  0.120899  0  0.997326  0  0  0.124352  0  0.996068  0  0  0.106901  0.117155  0  1.001006  0
H  H6  1  0.45891680  0.93328425  0.20619229  1  0  0.101728  0  0.943917  0  0  0.113836  0  1.003901  0  0  0.116855  0  1.00173  0  0  0.113744  0.11149  0  1.005488  0
H  H7  1  0.95892037  0.06671634  0.79380716  1  0  0.101737  0  0.943952  0  0  0.113818  0  1.003973  0  0  0.116837  0  1.001802  0  0  0.113758  0.111474  0  1.005553  0
H  H8  1  0.44661687  0.66302807  0.20088757  1  0  0.109078  0  0.982224  0  0  0.116375  0  1.05065  0  0  0.120577  0  1.046947  0  0  0.115012  0.11328  0  1.053111  0
H  H9  1  0.94662329  0.33697147  0.79911271  1  0  0.109083  0  0.982232  0  0  0.116401  0  1.050635  0  0  0.120609  0  1.046925  0  0  0.114984  0.113302  0  1.053089  0
H  H10  1  0.39672925  0.44064859  0.30647525  1  0  0.117038  0  0.951585  0  0  0.126129  0  1.010608  0  0  0.129834  0  1.008857  0  0  0.111223  0.122533  0  1.014293  0
H  H11  1  0.89672441  0.55935114  0.69352605  1  0  0.117023  0  0.951583  0  0  0.126132  0  1.010584  0  0  0.129836  0  1.008835  0  0  0.111235  0.122529  0  1.014279  0
H  H12  1  0.38464625  0.46461249  0.53150975  1  0  0.097593  0  0.942606  0  0  0.108403  0  1.00273  0  0  0.111608  0  1.000647  0  0  0.108864  0.10449  0  1.00716  0
H  H13  1  0.88463556  0.53538727  0.46849070  1  0  0.097571  0  0.94265  0  0  0.108369  0  1.002789  0  0  0.111581  0  1.000696  0  0  0.108865  0.104459  0  1.007218  0
H  H14  1  0.55457824  0.96369411  0.89369300  1  0  0.069549  0  0.946212  0  0  0.084024  0  1.003799  0  0  0.085877  0  1.002645  0  0  0.121082  0.082659  0  1.004657  0
H  H15  1  0.05458091  0.03630682  0.10630658  1  0  0.069568  0  0.946202  0  0  0.084041  0  1.003787  0  0  0.085893  0  1.00264  0  0  0.121087  0.082677  0  1.004644  0
H  H16  1  0.19225553  0.98655339  0.90318608  1  0  0.10651  0  0.957493  0  0  0.12848  0  1.018147  0  0  0.129898  0  1.018277  0  0  0.093422  0.12734  0  1.018229  0
H  H17  1  0.69225525  0.01344596  0.09681569  1  0  0.106495  0  0.957466  0  0  0.128442  0  1.018152  0  0  0.129867  0  1.018273  0  0  0.093421  0.127309  0  1.018228  0
H  H18  1  0.26851895  0.88214563  0.02062025  1  0  0.101068  0  0.974925  0  0  0.119372  0  1.04535  0  0  0.121173  0  1.044145  0  0  0.092035  0.118119  0  1.045965  0
H  H19  1  0.76851786  0.11785344  0.97937955  1  0  0.101024  0  0.974981  0  0  0.119334  0  1.045392  0  0  0.121129  0  1.044197  0  0  0.092005  0.118075  0  1.046013  0
H  H20  1  0.15465384  0.79266127  0.88897294  1  0  0.109041  0  0.967367  0  0  0.128115  0  1.033789  0  0  0.130169  0  1.03312  0  0  0.093795  0.12681  0  1.033979  0
H  H21  1  0.65465226  0.20733930  0.11102725  1  0  0.109012  0  0.967336  0  0  0.128096  0  1.033755  0  0  0.130138  0  1.033102  0  0  0.093812  0.126782  0  1.033961  0
C  C22  1  0.47247301  0.97880225  0.68403483  1  0  0.515296  0  3.812848  0  0  0.469096  0  4.098937  0  0  0.49884  0  4.100054  0  0  0.244281  0.44924  0  4.097018  0
C  C23  1  0.97247416  0.02119719  0.31596361  1  0  0.515301  0  3.812784  0  0  0.469106  0  4.098911  0  0  0.498842  0  4.100007  0  0  0.244296  0.449243  0  4.096986  0
C  C24  1  0.46576206  0.96609490  0.55331674  1  0  -0.118144  0  3.813884  0  0  -0.100736  0  4.05082  0  0  -0.112593  0  4.077231  0  0  -0.017522  -0.092317  0  4.032229  0
C  C25  1  0.96576221  0.03390458  0.44668350  1  0  -0.118094  0  3.813812  0  0  -0.100713  0  4.050765  0  0  -0.112572  0  4.077168  0  0  -0.017509  -0.092301  0  4.03218  0
C  C26  1  0.45211813  0.82532535  0.48865576  1  0  0.030262  0  3.787957  0  0  0.031161  0  4.010737  0  0  0.034024  0  4.036635  0  0  0.001665  0.029162  0  3.993189  0
C  C27  1  0.95211999  0.17467527  0.51134459  1  0  0.030216  0  3.788008  0  0  0.031136  0  4.01073  0  0  0.033996  0  4.036629  0  0  0.00168  0.029141  0  3.993175  0
C  C28  1  0.42878920  0.69722258  0.54837617  1  0  -0.116588  0  3.788451  0  0  -0.103337  0  4.030187  0  0  -0.114831  0  4.055333  0  0  -0.017169  -0.093993  0  4.01023  0
C  C29  1  0.92878614  0.30277703  0.45162416  1  0  -0.116613  0  3.78841  0  0  -0.103338  0  4.030144  0  0  -0.114833  0  4.055273  0  0  -0.017147  -0.094  0  4.010196  0
C  C30  1  0.41966902  0.70992040  0.67938865  1  0  0.523937  0  3.791433  0  0  0.479713  0  4.073013  0  0  0.510117  0  4.071962  0  0  0.250511  0.459736  0  4.071968  0
C  C31  1  0.91966393  0.29007924  0.32061171  1  0  0.524173  0  3.79108  0  0  0.479886  0  4.072784  0  0  0.510297  0  4.071677  0  0  0.250574  0.459894  0  4.071747  0
C  C32  1  0.47083348  0.09136423  0.49322772  1  0  -0.026858  0  3.695915  0  0  -0.057711  0  3.954016  0  0  -0.052722  0  3.971587  0  0  -0.066603  -0.06056  0  3.94332  0
C  C33  1  0.97083692  0.90863412  0.50677242  1  0  -0.026895  0  3.695939  0  0  -0.057735  0  3.954052  0  0  -0.052741  0  3.971614  0  0  -0.066612  -0.060582  0  3.943353  0
C  C34  1  0.46671294  0.07997980  0.36776255  1  0  -0.08284  0  3.724597  0  0  -0.102255  0  3.997598  0  0  -0.107972  0  4.017902  0  0  -0.090842  -0.099635  0  3.985393  0
C  C35  1  0.96671695  0.92001966  0.63223591  1  0  -0.082893  0  3.724747  0  0  -0.102308  0  3.997737  0  0  -0.108019  0  4.018034  0  0  -0.090854  -0.099678  0  3.985509  0
C  C36  1  0.46167844  0.94329194  0.30328856  1  0  -0.046081  0  3.65233  0  0  -0.076249  0  3.91066  0  0  -0.073636  0  3.927658  0  0  -0.062384  -0.076164  0  3.898307  0
C  C37  1  0.96168276  0.05670755  0.69671257  1  0  -0.046046  0  3.652428  0  0  -0.07622  0  3.91073  0  0  -0.07361  0  3.927729  0  0  -0.062369  -0.076135  0  3.898369  0
C  C38  1  0.45346850  0.81298129  0.36149458  1  0  0.052304  0  3.781065  0  0  0.073021  0  4.009663  0  0  0.070277  0  4.033509  0  0  0.001163  0.073431  0  3.993918  0
C  C39  1  0.95347243  0.18701933  0.63850577  1  0  0.052303  0  3.78123  0  0  0.073093  0  4.009708  0  0  0.070347  0  4.033561  0  0  0.001173  0.073495  0  3.993959  0
C  C40  1  0.43857339  0.67153541  0.29805116  1  0  -0.091561  0  3.685138  0  0  -0.118593  0  3.936044  0  0  -0.117408  0  3.953789  0  0  -0.069503  -0.117313  0  3.922942  0
C  C41  1  0.93857751  0.32846306  0.70194906  1  0  -0.091593  0  3.685098  0  0  -0.118694  0  3.936025  0  0  -0.117495  0  3.953737  0  0  -0.069493  -0.117404  0  3.922915  0
C  C42  1  0.41414054  0.54752169  0.35777793  1  0  -0.068917  0  3.730885  0  0  -0.083391  0  3.989847  0  0  -0.088385  0  4.010551  0  0  -0.078386  -0.080792  0  3.975788  0
C  C43  1  0.91413977  0.45247687  0.64222413  1  0  -0.068837  0  3.730859  0  0  -0.083329  0  3.989832  0  0  -0.088324  0  4.010543  0  0  -0.078363  -0.080734  0  3.975759  0
C  C44  1  0.40726006  0.56074036  0.48314583  1  0  -0.031977  0  3.697116  0  0  -0.058708  0  3.950718  0  0  -0.054949  0  3.969469  0  0  -0.064969  -0.059859  0  3.936033  0
C  C45  1  0.90725570  0.43925933  0.51685545  1  0  -0.032004  0  3.697204  0  0  -0.058732  0  3.950814  0  0  -0.054975  0  3.969557  0  0  -0.065044  -0.059877  0  3.936123  0
C  C46  1  0.46890896  0.86199171  0.87037593  1  0  0.06217  0  3.590401  0  0  0.047419  0  3.821494  0  0  0.048973  0  3.833089  0  0  0.008842  0.046102  0  3.814042  0
C  C47  1  0.96891071  0.13800885  0.12962438  1  0  0.062029  0  3.590408  0  0  0.047278  0  3.821489  0  0  0.04883  0  3.833085  0  0  0.008799  0.045975  0  3.814028  0
C  C48  1  0.25718678  0.88143079  0.92361663  1  0  -0.32945  0  3.686937  0  0  -0.416234  0  3.931235  0  0  -0.418688  0  3.939885  0  0  -0.250763  -0.413929  0  3.924714  0
C  C49  1  0.75718751  0.11856723  0.07638311  1  0  -0.329328  0  3.686883  0  0  -0.416111  0  3.931179  0  0  -0.418543  0  3.939833  0  0  -0.250736  -0.413784  0  3.924649  0
C  C50  1  0.59948633  0.73975985  0.91835489  1  0  0.615382  0  3.986047  0  0  0.570454  0  4.292749  0  0  0.602874  0  4.284907  0  0  0.140129  0.548304  0  4.297224  0
C  C51  1  0.09948476  0.26024202  0.08164465  1  0  0.615424  0  3.985827  0  0  0.570504  0  4.292533  0  0  0.602923  0  4.284684  0  0  0.140178  0.548354  0  4.297001  0
N  N52  1  0.46138110  0.84839668  0.73920452  1  0  -0.284312  0  3.338032  0  0  -0.204324  0  3.562026  0  0  -0.229327  0  3.579764  0  0  -0.235877  -0.187346  0  3.549304  0
N  N53  1  0.96138032  0.15160390  0.26079493  1  0  -0.284328  0  3.337918  0  0  -0.204329  0  3.561942  0  0  -0.229322  0  3.579667  0  0  -0.235864  -0.18734  0  3.549229  0
O  O54  1  0.48730295  0.09875607  0.74533650  1  0  -0.575912  0  1.994449  0  0  -0.537051  0  2.232826  0  0  -0.55816  0  2.229019  0  0  -0.375105  -0.522027  0  2.235816  0
O  O55  1  0.98730214  0.90124442  0.25466199  1  0  -0.575905  0  1.994454  0  0  -0.537021  0  2.232901  0  0  -0.558153  0  2.229038  0  0  -0.375116  -0.522022  0  2.235846  0
O  O56  1  0.37673560  0.60520080  0.73645896  1  0  -0.551651  0  1.971772  0  0  -0.508658  0  2.197316  0  0  -0.529664  0  2.193147  0  0  -0.344625  -0.493049  0  2.199753  0
O  O57  1  0.87672420  0.39479900  0.26354328  1  0  -0.551797  0  1.971584  0  0  -0.508766  0  2.197246  0  0  -0.529798  0  2.192999  0  0  -0.344691  -0.493185  0  2.19965  0
O  O58  1  0.53821961  0.69143162  0.01441575  1  0  -0.749931  0  1.980817  0  0  -0.701086  0  2.224089  0  0  -0.725395  0  2.214757  0  0  -0.500112  -0.683399  0  2.229866  0
O  O59  1  0.03820831  0.30856606  0.98558184  1  0  -0.749974  0  1.980645  0  0  -0.701122  0  2.223939  0  0  -0.725442  0  2.214587  0  0  -0.500113  -0.68344  0  2.229689  0
O  O60  1  0.76267659  0.70388598  0.86382167  1  0  -0.691385  0  1.919488  0  0  -0.652661  0  2.151417  0  0  -0.675701  0  2.143433  0  0  -0.429503  -0.636328  0  2.156957  0
O  O61  1  0.26266530  0.29612189  0.13617617  1  0  -0.691346  0  1.919528  0  0  -0.65264  0  2.151461  0  0  -0.675664  0  2.143489  0  0  -0.429523  -0.636297  0  2.157012  0
