# generated using pymatgen
data_Cd2H26C22N2O11
_symmetry_space_group_name_H-M   'P 1'
_cell_length_a   8.80862243
_cell_length_b   15.38493940
_cell_length_c   21.57330221
_cell_angle_alpha   90.00079762
_cell_angle_beta   90.00046956
_cell_angle_gamma   96.34551712
_symmetry_Int_Tables_number   1
_chemical_formula_structural   Cd2H26C22N2O11
_chemical_formula_sum   'Cd8 H104 C88 N8 O44'
_cell_volume   2905.70491827
_cell_formula_units_Z   4
loop_
 _symmetry_equiv_pos_site_id
 _symmetry_equiv_pos_as_xyz
  1  'x, y, z'
loop_
 _atom_site_type_symbol
 _atom_site_label
 _atom_site_symmetry_multiplicity
 _atom_site_fract_x
 _atom_site_fract_y
 _atom_site_fract_z
 _atom_site_occupancy
 _atom_site_pbe_bader_charge
 _atom_site_pbe_bader_spin_density
 _atom_site_pbe_cm5_charge
 _atom_site_pbe_ddec_charge
 _atom_site_pbe_ddec_spin_density
 _atom_site_pbe_ddec_sum_bond_order
 _atom_site_pbe_magmom
Cd  Cd0  1  0.31756617  0.59908512  0.18695449  1  1.221894  0  0.754026  0.808223  0  2.210037  0
Cd  Cd1  1  0.18243622  0.90091472  0.68695339  1  1.221828  0  0.753994  0.808147  0  2.210162  0
Cd  Cd2  1  0.68243201  0.40091713  0.81305439  1  1.22175  0  0.754001  0.808146  0  2.210135  0
Cd  Cd3  1  0.81756476  0.09909082  0.31304807  1  1.222011  0  0.753999  0.808128  0  2.210302  0
Cd  Cd4  1  0.22212553  0.90862815  0.98987421  1  1.298605  0  0.751833  1.004094  0  2.001526  0
Cd  Cd5  1  0.27787349  0.59137600  0.48987046  1  1.298554  0  0.751864  1.00414  0  2.001549  0
Cd  Cd6  1  0.77786685  0.09137339  0.01012494  1  1.298466  0  0.751858  1.004105  0  2.00161  0
Cd  Cd7  1  0.72211807  0.40862749  0.51012451  1  1.298688  0  0.751807  1.004088  0  2.001664  0
H  H8  1  0.10660369  0.71986509  0.76095402  1  0.161916  0  0.124988  0.113292  0  0.994751  0
H  H9  1  0.39340270  0.78012915  0.26094837  1  0.161806  0  0.124988  0.113296  0  0.994858  0
H  H10  1  0.89339427  0.28013585  0.23905440  1  0.161662  0  0.124968  0.113232  0  0.994768  0
H  H11  1  0.60661629  0.21985439  0.73905356  1  0.161763  0  0.124985  0.113228  0  0.994675  0
H  H12  1  0.86614446  0.93552823  0.74977358  1  0.114494  0  0.122233  0.096356  0  0.984592  0
H  H13  1  0.63388507  0.56447452  0.24976398  1  0.114659  0  0.122203  0.09636  0  0.984524  0
H  H14  1  0.13384675  0.06446611  0.25022371  1  0.114536  0  0.122175  0.096354  0  0.984596  0
H  H15  1  0.36616301  0.43552042  0.75023610  1  0.114825  0  0.122167  0.096421  0  0.984646  0
H  H16  1  0.14946374  0.07619467  0.02746235  1  0.642359  0  0.29078  0.390601  0  0.949063  0
H  H17  1  0.35054430  0.42380222  0.52745881  1  0.642188  0  0.290801  0.390598  0  0.949063  0
H  H18  1  0.85055303  0.92380320  0.97253540  1  0.642008  0  0.290763  0.390586  0  0.949097  0
H  H19  1  0.64946688  0.57619624  0.47253061  1  0.642179  0  0.290789  0.390589  0  0.949099  0
H  H20  1  0.08891994  0.01191511  0.07947390  1  0.668809  0  0.293708  0.40128  0  0.931422  0
H  H21  1  0.41107106  0.48808922  0.57947027  1  0.668895  0  0.293607  0.401156  0  0.931611  0
H  H22  1  0.91108755  0.98808854  0.92052617  1  0.668742  0  0.293774  0.401392  0  0.931285  0
H  H23  1  0.58891325  0.51191158  0.42052053  1  0.668677  0  0.293727  0.401333  0  0.93137  0
H  H24  1  0.24948742  0.87540720  0.86131102  1  0.636249  0  0.319503  0.414368  0  0.87629  0
H  H25  1  0.25050937  0.62459230  0.36131307  1  0.636261  0  0.319488  0.414334  0  0.876255  0
H  H26  1  0.75049977  0.12459037  0.13868906  1  0.636209  0  0.319518  0.414384  0  0.876246  0
H  H27  1  0.74949433  0.37542307  0.63867912  1  0.636238  0  0.319494  0.41438  0  0.876362  0
H  H28  1  0.13555522  0.79725934  0.88159940  1  0.621661  0  0.301171  0.374472  0  0.947636  0
H  H29  1  0.36444887  0.70274065  0.38159984  1  0.621603  0  0.301164  0.374464  0  0.947652  0
H  H30  1  0.86442496  0.20274403  0.11840392  1  0.621724  0  0.301083  0.374342  0  0.947839  0
H  H31  1  0.63558237  0.29725541  0.61840626  1  0.621824  0  0.301105  0.374392  0  0.947768  0
H  H32  1  0.54268720  0.91574329  0.03203626  1  0.652612  0  0.289172  0.391005  0  0.948619  0
H  H33  1  0.95730432  0.58426237  0.53203945  1  0.652591  0  0.289206  0.391092  0  0.948483  0
H  H34  1  0.45729712  0.08425751  0.96795779  1  0.652498  0  0.289141  0.390962  0  0.948676  0
H  H35  1  0.04268081  0.41573648  0.46795924  1  0.652597  0  0.289183  0.391042  0  0.948551  0
H  H36  1  0.27205487  0.67073844  0.05305733  1  0.130883  0  0.117591  0.100363  0  1.011379  0
H  H37  1  0.22796604  0.82925946  0.55305057  1  0.131014  0  0.11755  0.100233  0  1.011374  0
H  H38  1  0.72792211  0.32926620  0.94695526  1  0.131287  0  0.117698  0.100419  0  1.01131  0
H  H39  1  0.77206128  0.17074048  0.44695367  1  0.13112  0  0.117657  0.100392  0  1.01134  0
H  H40  1  0.40575598  0.69278178  0.95140368  1  0.081407  0  0.11077  0.124081  0  0.995788  0
H  H41  1  0.09427019  0.80723360  0.45139125  1  0.080781  0  0.110742  0.124137  0  0.995659  0
H  H42  1  0.59421735  0.30724241  0.04860798  1  0.08092  0  0.110741  0.12421  0  0.995712  0
H  H43  1  0.90577118  0.19276192  0.54860604  1  0.080872  0  0.110727  0.124201  0  0.995745  0
H  H44  1  0.75878712  0.54736500  0.02433779  1  0.099654  0  0.112156  0.121045  0  0.984007  0
H  H45  1  0.74123107  0.95263099  0.52433601  1  0.099679  0  0.112196  0.121022  0  0.983798  0
H  H46  1  0.24119529  0.45265211  0.97566367  1  0.099926  0  0.112076  0.120894  0  0.984105  0
H  H47  1  0.25878697  0.04734666  0.47565665  1  0.100227  0  0.112149  0.120965  0  0.983998  0
H  H48  1  0.60738832  0.52894096  0.12240495  1  0.128818  0  0.122289  0.094662  0  0.97576  0
H  H49  1  0.89263166  0.97105383  0.62240433  1  0.128515  0  0.122283  0.094598  0  0.975666  0
H  H50  1  0.39260057  0.47106707  0.87759744  1  0.128749  0  0.12225  0.094639  0  0.975718  0
H  H51  1  0.10738606  0.02894993  0.37758833  1  0.129274  0  0.12232  0.094706  0  0.975787  0
H  H52  1  0.79396716  0.61094328  0.92475989  1  0.022496  0  0.096484  0.095427  0  0.981875  0
H  H53  1  0.70604566  0.88906750  0.42475793  1  0.022681  0  0.096504  0.09546  0  0.981778  0
H  H54  1  0.20599890  0.38907103  0.07524250  1  0.022388  0  0.096431  0.095328  0  0.981907  0
H  H55  1  0.29397767  0.11091477  0.57524307  1  0.022469  0  0.096455  0.09537  0  0.981723  0
H  H56  1  0.62440213  0.60591041  0.88065645  1  0.104819  0  0.100084  0.120942  0  1.013606  0
H  H57  1  0.87560216  0.89408827  0.38065234  1  0.105712  0  0.100083  0.120855  0  1.013673  0
H  H58  1  0.37555896  0.39410125  0.11934501  1  0.10602  0  0.100079  0.120912  0  1.013785  0
H  H59  1  0.12442624  0.10589732  0.61934913  1  0.1057  0  0.100055  0.120875  0  1.013762  0
H  H60  1  0.76992866  0.77062975  0.94797730  1  0.133981  0  0.100145  0.118979  0  1.014986  0
H  H61  1  0.73006269  0.72937868  0.44797801  1  0.133948  0  0.100145  0.119003  0  1.014959  0
H  H62  1  0.23004629  0.22938336  0.05201953  1  0.133411  0  0.100139  0.119032  0  1.014908  0
H  H63  1  0.26996395  0.27060297  0.55201836  1  0.133394  0  0.100161  0.119104  0  1.014934  0
H  H64  1  0.60176137  0.76438218  0.90338251  1  0.052018  0  0.09968  0.099933  0  0.992356  0
H  H65  1  0.89823220  0.73561751  0.40338663  1  0.052138  0  0.099678  0.099959  0  0.992306  0
H  H66  1  0.39821514  0.23563355  0.09661061  1  0.052449  0  0.099747  0.100105  0  0.992188  0
H  H67  1  0.10179497  0.26436741  0.59660880  1  0.05251  0  0.099719  0.10012  0  0.992274  0
H  H68  1  0.69378248  0.88212868  0.83665355  1  0.100423  0  0.115261  0.12979  0  0.975237  0
H  H69  1  0.80623444  0.61787640  0.33665063  1  0.100377  0  0.115244  0.129702  0  0.975376  0
H  H70  1  0.30619570  0.11786226  0.16333864  1  0.10044  0  0.115222  0.129708  0  0.975279  0
H  H71  1  0.19383128  0.38213635  0.66334388  1  0.100644  0  0.11521  0.129759  0  0.975319  0
H  H72  1  0.94640514  0.65723937  0.84936302  1  0.092189  0  0.114321  0.127242  0  0.986231  0
H  H73  1  0.55358867  0.84275464  0.34936379  1  0.09207  0  0.114267  0.127096  0  0.986291  0
H  H74  1  0.05357914  0.34275425  0.15063566  1  0.09225  0  0.114292  0.127163  0  0.986319  0
H  H75  1  0.44641442  0.15723591  0.65063953  1  0.092068  0  0.114377  0.127322  0  0.986265  0
H  H76  1  0.73881954  0.81947061  0.23361490  1  0.049907  0  0.097419  0.077721  0  1.019251  0
H  H77  1  0.76118512  0.68053481  0.73361976  1  0.050592  0  0.097435  0.077743  0  1.019144  0
H  H78  1  0.26118003  0.18054732  0.76638749  1  0.049626  0  0.097446  0.077731  0  1.019057  0
H  H79  1  0.23881157  0.31945829  0.26638587  1  0.050322  0  0.097452  0.077794  0  1.019096  0
H  H80  1  0.01260842  0.82562384  0.24556319  1  0.068175  0  0.091042  0.101231  0  0.994237  0
H  H81  1  0.48740374  0.67437994  0.74556737  1  0.068063  0  0.091062  0.101214  0  0.994208  0
H  H82  1  0.98740044  0.17438832  0.75443643  1  0.068131  0  0.091095  0.101271  0  0.994157  0
H  H83  1  0.51258613  0.32561309  0.25443224  1  0.068089  0  0.091074  0.101154  0  0.994199  0
H  H84  1  0.04637627  0.88084517  0.17440380  1  0.06285  0  0.091113  0.101614  0  0.990408  0
H  H85  1  0.45363026  0.61915380  0.67440825  1  0.062967  0  0.091047  0.101476  0  0.990478  0
H  H86  1  0.95361664  0.11915964  0.82559117  1  0.062833  0  0.091049  0.101567  0  0.990488  0
H  H87  1  0.54637855  0.38084399  0.32558904  1  0.063021  0  0.091027  0.101496  0  0.990443  0
H  H88  1  0.85865326  0.70268959  0.18955776  1  0.027059  0  0.09979  0.080187  0  0.976719  0
H  H89  1  0.64134869  0.79731163  0.68955688  1  0.027038  0  0.09979  0.080275  0  0.976732  0
H  H90  1  0.14133997  0.29731718  0.81044834  1  0.027255  0  0.099798  0.080265  0  0.976759  0
H  H91  1  0.35865020  0.20268802  0.31044181  1  0.026966  0  0.099823  0.080321  0  0.976813  0
H  H92  1  0.87014060  0.69073829  0.07798834  1  0.071801  0  0.102751  0.092882  0  0.993277  0
H  H93  1  0.62986230  0.80925474  0.57798893  1  0.071727  0  0.102742  0.092838  0  0.993432  0
H  H94  1  0.12985591  0.30926068  0.92201730  1  0.07179  0  0.102745  0.09287  0  0.993281  0
H  H95  1  0.37012199  0.19073888  0.42201022  1  0.071609  0  0.102727  0.092827  0  0.993449  0
H  H96  1  0.67927744  0.79838758  0.05776262  1  0.058622  0  0.089816  0.092192  0  1.027227  0
H  H97  1  0.82073264  0.70161033  0.55776696  1  0.058604  0  0.08981  0.092097  0  1.027173  0
H  H98  1  0.32072517  0.20161407  0.94223977  1  0.058644  0  0.089787  0.092177  0  1.027138  0
H  H99  1  0.17926976  0.29839001  0.44223450  1  0.058518  0  0.089792  0.09213  0  1.027265  0
H  H100  1  0.65123752  0.73693542  0.12645087  1  0.007152  0  0.08808  0.084528  0  1.017397  0
H  H101  1  0.84876129  0.76306836  0.62645453  1  0.007313  0  0.088069  0.084497  0  1.017279  0
H  H102  1  0.34875673  0.26307070  0.87355106  1  0.007382  0  0.088082  0.084528  0  1.01731  0
H  H103  1  0.15123244  0.23693449  0.37354647  1  0.007127  0  0.088059  0.084523  0  1.017291  0
H  H104  1  0.60151195  0.87725332  0.15431833  1  0.048567  0  0.107169  0.103223  0  0.950915  0
H  H105  1  0.89849538  0.62275048  0.65432448  1  0.048332  0  0.107165  0.103191  0  0.950942  0
H  H106  1  0.39849214  0.12275748  0.84567989  1  0.048579  0  0.107166  0.103236  0  0.950905  0
H  H107  1  0.10150568  0.37724853  0.34567699  1  0.048458  0  0.107169  0.103203  0  0.951003  0
H  H108  1  0.52873350  0.90107633  0.96081841  1  0.622376  0  0.315208  0.396645  0  0.888997  0
H  H109  1  0.97127981  0.59891889  0.46082003  1  0.621747  0  0.315182  0.396557  0  0.889126  0
H  H110  1  0.47127282  0.09892013  0.03917703  1  0.621804  0  0.315214  0.396641  0  0.888913  0
H  H111  1  0.02872339  0.40107232  0.53917772  1  0.6218  0  0.315169  0.396646  0  0.888996  0
C  C112  1  0.01319090  0.75315435  0.77942315  1  0.438079  0  0.046862  0.080625  0  3.970347  0
C  C113  1  0.48681471  0.74684679  0.27941888  1  0.437608  0  0.046836  0.080529  0  3.969978  0
C  C114  1  0.98680252  0.24684654  0.22057925  1  0.437811  0  0.046912  0.080758  0  3.970011  0
C  C115  1  0.51320679  0.25314526  0.72058120  1  0.438031  0  0.046769  0.080495  0  3.970415  0
C  C116  1  0.87783967  0.87330272  0.77258482  1  0.388522  0  0.050009  0.098021  0  3.971625  0
C  C117  1  0.62218483  0.62670111  0.27257950  1  0.387826  0  0.050013  0.097856  0  3.971719  0
C  C118  1  0.12214700  0.12669158  0.22741294  1  0.388321  0  0.050178  0.097938  0  3.971751  0
C  C119  1  0.37785799  0.37329638  0.72741872  1  0.388167  0  0.050164  0.097826  0  3.971781  0
C  C120  1  0.37928564  0.64359841  0.04404624  1  0.495202  0  0.049204  0.099766  0  3.937333  0
C  C121  1  0.12072877  0.85640250  0.54403892  1  0.49508  0  0.049282  0.099822  0  3.937254  0
C  C122  1  0.62068328  0.35640549  0.95596264  1  0.494276  0  0.049072  0.099779  0  3.936761  0
C  C123  1  0.87929543  0.14359218  0.45596254  1  0.495285  0  0.0491  0.099779  0  3.937176  0
C  C124  1  0.45510328  0.65547719  0.98774711  1  -0.037517  0  -0.080435  -0.177907  0  3.929685  0
C  C125  1  0.04492010  0.84453043  0.48773952  1  -0.035949  0  -0.080435  -0.178059  0  3.929267  0
C  C126  1  0.54486349  0.34453452  0.01226224  1  -0.036482  0  -0.080498  -0.178278  0  3.929626  0
C  C127  1  0.95511360  0.15545979  0.51226148  1  -0.03605  0  -0.080508  -0.178459  0  3.929909  0
C  C128  1  0.59544035  0.62208253  0.97909204  1  -0.021117  0  0.017993  0.173027  0  3.936364  0
C  C129  1  0.90457766  0.87791834  0.47908740  1  -0.022244  0  0.017994  0.173089  0  3.935948  0
C  C130  1  0.40453169  0.37792663  0.02091035  1  -0.02052  0  0.017923  0.172962  0  3.936355  0
C  C131  1  0.09544557  0.12206328  0.52091221  1  -0.021493  0  0.018009  0.173311  0  3.936211  0
C  C132  1  0.65078856  0.57538871  0.02836263  1  -0.031  0  -0.083079  -0.189352  0  3.96118  0
C  C133  1  0.84922794  0.92460343  0.52836372  1  -0.030061  0  -0.08311  -0.189287  0  3.960867  0
C  C134  1  0.34918575  0.42462047  0.97163698  1  -0.030892  0  -0.082948  -0.189073  0  3.961179  0
C  C135  1  0.15078369  0.07537677  0.47163450  1  -0.031748  0  -0.083013  -0.189276  0  3.961064  0
C  C136  1  0.56771779  0.56514682  0.08317880  1  0.432796  0  0.049496  0.094428  0  3.977912  0
C  C137  1  0.93229628  0.93484448  0.58317703  1  0.432649  0  0.049412  0.094346  0  3.977971  0
C  C138  1  0.43226517  0.43485266  0.91682452  1  0.432061  0  0.049536  0.094436  0  3.978408  0
C  C139  1  0.06771519  0.06514877  0.41681933  1  0.432354  0  0.049451  0.094295  0  3.978089  0
C  C140  1  0.68504169  0.63907740  0.92027096  1  -0.008858  0  -0.158895  -0.206854  0  3.932651  0
C  C141  1  0.81496656  0.86092671  0.42026585  1  -0.010004  0  -0.158872  -0.206754  0  3.932558  0
C  C142  1  0.31491950  0.36093491  0.07973421  1  -0.01052  0  -0.158728  -0.206497  0  3.932419  0
C  C143  1  0.18506143  0.13905626  0.57973608  1  -0.010325  0  -0.158704  -0.206534  0  3.932152  0
C  C144  1  0.71206003  0.73771151  0.90752241  1  -0.100239  0  -0.156303  -0.20339  0  3.93151  0
C  C145  1  0.78793665  0.76229287  0.40752317  1  -0.100201  0  -0.156305  -0.203458  0  3.931451  0
C  C146  1  0.28791325  0.26229832  0.09247581  1  -0.099721  0  -0.156398  -0.203775  0  3.931181  0
C  C147  1  0.21209208  0.23769468  0.59247597  1  -0.099557  0  -0.156372  -0.203892  0  3.931356  0
C  C148  1  0.80657294  0.76557477  0.85181079  1  -0.092772  0  0.021732  0.184885  0  3.918753  0
C  C149  1  0.69342736  0.73442392  0.35180910  1  -0.092349  0  0.021739  0.184838  0  3.918767  0
C  C150  1  0.19340381  0.23442138  0.14818882  1  -0.09252  0  0.021668  0.184967  0  3.918747  0
C  C151  1  0.30659840  0.26557339  0.64818819  1  -0.092202  0  0.021621  0.185027  0  3.918507  0
C  C152  1  0.78340418  0.84354514  0.82139206  1  0.063394  0  -0.076344  -0.169322  0  3.915756  0
C  C153  1  0.71661256  0.65645374  0.32138875  1  0.06329  0  -0.0763  -0.169159  0  3.91584  0
C  C154  1  0.21658135  0.15644914  0.17860199  1  0.063672  0  -0.076275  -0.169161  0  3.915562  0
C  C155  1  0.28343327  0.34354835  0.67860669  1  0.063388  0  -0.076339  -0.169353  0  3.915916  0
C  C156  1  0.92440606  0.71971174  0.82933854  1  0.001842  0  -0.088079  -0.209472  0  3.956623  0
C  C157  1  0.57559215  0.78028386  0.32933552  1  0.001734  0  -0.088063  -0.209323  0  3.956781  0
C  C158  1  0.07558072  0.28028322  0.17066338  1  0.001549  0  -0.088108  -0.209526  0  3.957082  0
C  C159  1  0.42443348  0.21970562  0.67066687  1  0.001428  0  -0.088185  -0.209709  0  3.956907  0
C  C160  1  0.81398043  0.95199365  0.24232553  1  1.539929  0  0.190488  0.581026  0  4.157113  0
C  C161  1  0.68602857  0.54800938  0.74232928  1  1.539154  0  0.19053  0.580921  0  4.157431  0
C  C162  1  0.18602192  0.04802039  0.75766898  1  1.53843  0  0.190716  0.581289  0  4.156971  0
C  C163  1  0.31396709  0.45198435  0.25767172  1  1.539434  0  0.190642  0.581184  0  4.157177  0
C  C164  1  0.80920107  0.86784488  0.20492981  1  -0.017968  0  -0.089735  -0.115552  0  3.867826  0
C  C165  1  0.69080177  0.63215993  0.70493302  1  -0.018496  0  -0.08978  -0.115604  0  3.867717  0
C  C166  1  0.19079485  0.13216453  0.79507073  1  -0.017394  0  -0.089747  -0.115621  0  3.86788  0
C  C167  1  0.30919783  0.36783712  0.29506845  1  -0.017983  0  -0.08976  -0.115593  0  3.867701  0
C  C168  1  0.96544471  0.83375634  0.19921126  1  -0.034824  0  -0.171752  -0.186132  0  3.91802  0
C  C169  1  0.53456440  0.66624580  0.69921428  1  -0.03462  0  -0.171735  -0.185909  0  3.917984  0
C  C170  1  0.03455410  0.16624983  0.80078928  1  -0.034617  0  -0.171712  -0.185956  0  3.918033  0
C  C171  1  0.46543385  0.33374992  0.30078672  1  -0.034611  0  -0.171651  -0.185736  0  3.917898  0
C  C172  1  0.94756865  0.74642962  0.16503615  1  0.026537  0  -0.087154  -0.105918  0  3.872932  0
C  C173  1  0.55243396  0.75357174  0.66503778  1  0.026576  0  -0.087193  -0.106099  0  3.873004  0
C  C174  1  0.05242675  0.25357652  0.83497041  1  0.026556  0  -0.087167  -0.106161  0  3.87325  0
C  C175  1  0.44756077  0.24642329  0.33496230  1  0.026515  0  -0.087262  -0.106253  0  3.873183  0
C  C176  1  0.08609290  0.69630551  0.16804463  1  1.540685  0  0.187294  0.591416  0  4.173434  0
C  C177  1  0.41391163  0.80369593  0.66804104  1  1.540821  0  0.187462  0.591561  0  4.173407  0
C  C178  1  0.91390197  0.30369736  0.83196517  1  1.54051  0  0.18752  0.591723  0  4.173274  0
C  C179  1  0.58608829  0.19630308  0.33195764  1  1.540736  0  0.187512  0.591663  0  4.173408  0
C  C180  1  0.88518016  0.75630932  0.09928677  1  0.003679  0  -0.087151  -0.121056  0  3.853997  0
C  C181  1  0.61482356  0.74368612  0.59928666  1  0.003785  0  -0.087172  -0.121079  0  3.854243  0
C  C182  1  0.11481884  0.24369098  0.90071701  1  0.003702  0  -0.087269  -0.12115  0  3.854144  0
C  C183  1  0.38517241  0.25630958  0.40071434  1  0.003981  0  -0.08717  -0.121108  0  3.854343  0
C  C184  1  0.72728124  0.78904375  0.10387521  1  -0.007439  0  -0.163173  -0.176172  0  3.876127  0
C  C185  1  0.77272053  0.71095307  0.60387855  1  -0.007793  0  -0.163151  -0.175992  0  3.875941  0
C  C186  1  0.27271289  0.21095455  0.89612719  1  -0.007867  0  -0.163097  -0.176068  0  3.875906  0
C  C187  1  0.22727889  0.28904984  0.39612569  1  -0.007352  0  -0.163075  -0.175973  0  3.876011  0
C  C188  1  0.72228516  0.87257860  0.14353945  1  0.023627  0  -0.08981  -0.1287  0  3.845279  0
C  C189  1  0.77772614  0.62742306  0.64354338  1  0.024348  0  -0.089852  -0.128765  0  3.845389  0
C  C190  1  0.27772036  0.12742699  0.85646016  1  0.024019  0  -0.089944  -0.128924  0  3.845561  0
C  C191  1  0.22227523  0.37257792  0.35645809  1  0.02376  0  -0.089913  -0.128918  0  3.845598  0
C  C192  1  0.99758979  0.80915732  0.05597907  1  1.510907  0  0.203124  0.593686  0  4.117542  0
C  C193  1  0.50241137  0.69084176  0.55597712  1  1.511066  0  0.203256  0.59372  0  4.117705  0
C  C194  1  0.00241592  0.19084240  0.94402564  1  1.511059  0  0.203342  0.59385  0  4.117379  0
C  C195  1  0.49758326  0.30915262  0.44402388  1  1.510981  0  0.203347  0.593929  0  4.117363  0
C  C196  1  0.77246330  0.95413771  0.10590824  1  1.548285  0  0.208229  0.612854  0  4.132983  0
C  C197  1  0.72753605  0.54586500  0.60591212  1  1.54774  0  0.208477  0.613221  0  4.132691  0
C  C198  1  0.22754138  0.04586265  0.89408627  1  1.547986  0  0.208377  0.613098  0  4.132601  0
C  C199  1  0.27244889  0.45413972  0.39408749  1  1.547871  0  0.208269  0.612906  0  4.132867  0
N  N200  1  0.99141607  0.82923049  0.75177389  1  -1.23999  0  -0.336294  -0.257124  0  3.52326  0
N  N201  1  0.50860201  0.67076435  0.25176445  1  -1.238967  0  -0.336265  -0.256906  0  3.522648  0
N  N202  1  0.00858176  0.17076262  0.24822897  1  -1.239735  0  -0.336395  -0.257109  0  3.523139  0
N  N203  1  0.49143571  0.32922264  0.74823702  1  -1.240148  0  -0.336147  -0.256649  0  3.522636  0
N  N204  1  0.43503088  0.59930438  0.09128228  1  -1.243386  0  -0.337195  -0.252638  0  3.542941  0
N  N205  1  0.06498533  0.90068775  0.59128077  1  -1.243711  0  -0.337191  -0.252418  0  3.543091  0
N  N206  1  0.56493946  0.40069432  0.90872058  1  -1.24308  0  -0.337098  -0.252573  0  3.542978  0
N  N207  1  0.93503659  0.09930692  0.40871838  1  -1.243927  0  -0.337197  -0.25248  0  3.54281  0
O  O208  1  0.08598710  0.62660910  0.13579192  1  -1.179418  0  -0.361577  -0.590508  0  2.128799  0
O  O209  1  0.41402846  0.87339439  0.63579597  1  -1.179421  0  -0.361582  -0.590464  0  2.12894  0
O  O210  1  0.91400528  0.37339244  0.86422020  1  -1.17938  0  -0.36167  -0.590582  0  2.128803  0
O  O211  1  0.58597569  0.12660270  0.36420132  1  -1.179338  0  -0.361616  -0.590513  0  2.128934  0
O  O212  1  0.19291445  0.72175036  0.20599926  1  -1.162995  0  -0.341904  -0.557856  0  2.202669  0
O  O213  1  0.30707399  0.77824516  0.70598949  1  -1.163081  0  -0.342018  -0.557981  0  2.202507  0
O  O214  1  0.80708176  0.27825382  0.79400916  1  -1.163009  0  -0.342035  -0.558042  0  2.202518  0
O  O215  1  0.69292077  0.22175705  0.29401012  1  -1.163144  0  -0.342018  -0.558002  0  2.202578  0
O  O216  1  0.14004796  0.81497766  0.06829981  1  -1.134413  0  -0.316161  -0.527524  0  2.179838  0
O  O217  1  0.35995145  0.68503274  0.56829392  1  -1.134431  0  -0.316281  -0.52754  0  2.180028  0
O  O218  1  0.85995294  0.18503441  0.93170954  1  -1.134317  0  -0.316329  -0.527644  0  2.179768  0
O  O219  1  0.64004011  0.31497074  0.43170337  1  -1.134375  0  -0.316365  -0.527689  0  2.179647  0
O  O220  1  0.94885343  0.84320482  0.00662880  1  -1.200222  0  -0.331989  -0.602639  0  2.246196  0
O  O221  1  0.55114385  0.65679058  0.50662715  1  -1.200417  0  -0.332021  -0.602679  0  2.246221  0
O  O222  1  0.05115183  0.15678510  0.99337034  1  -1.200594  0  -0.332018  -0.602657  0  2.246301  0
O  O223  1  0.44885231  0.34319925  0.49337524  1  -1.200341  0  -0.331995  -0.602658  0  2.246284  0
O  O224  1  0.90524655  0.99335535  0.10836309  1  -1.20827  0  -0.32062  -0.581366  0  2.218905  0
O  O225  1  0.59474913  0.50664542  0.60837214  1  -1.208262  0  -0.320676  -0.58149  0  2.21859  0
O  O226  1  0.09475678  0.00664369  0.89162633  1  -1.208195  0  -0.320656  -0.581447  0  2.218535  0
O  O227  1  0.40523695  0.49335932  0.39163396  1  -1.208044  0  -0.320612  -0.58137  0  2.218687  0
O  O228  1  0.66760982  0.98067463  0.07034016  1  -1.183621  0  -0.342052  -0.608602  0  2.313416  0
O  O229  1  0.83237650  0.51932917  0.57033671  1  -1.18339  0  -0.34215  -0.60877  0  2.313553  0
O  O230  1  0.33238783  0.01932435  0.92965574  1  -1.183801  0  -0.342071  -0.608674  0  2.313461  0
O  O231  1  0.16759864  0.48067807  0.42965363  1  -1.183835  0  -0.342036  -0.608614  0  2.313438  0
O  O232  1  0.90571447  0.96213724  0.28848835  1  -1.182932  0  -0.341596  -0.574509  0  2.194052  0
O  O233  1  0.59429338  0.53787392  0.78849215  1  -1.182949  0  -0.341684  -0.574589  0  2.194168  0
O  O234  1  0.09427249  0.03787991  0.71150848  1  -1.182551  0  -0.341658  -0.574595  0  2.193773  0
O  O235  1  0.40570861  0.46212380  0.21150885  1  -1.182931  0  -0.341702  -0.574679  0  2.193935  0
O  O236  1  0.72328460  0.00832973  0.22856619  1  -1.168208  0  -0.345355  -0.565705  0  2.148444  0
O  O237  1  0.77671358  0.49167648  0.72857141  1  -1.167779  0  -0.345332  -0.565563  0  2.148729  0
O  O238  1  0.27671569  0.99168560  0.77142090  1  -1.167268  0  -0.345542  -0.565845  0  2.148725  0
O  O239  1  0.22328063  0.50831528  0.27142866  1  -1.167955  0  -0.345418  -0.56571  0  2.148771  0
O  O240  1  0.18152077  0.02880047  0.05403251  1  -1.272189  0  -0.590657  -0.781488  0  2.022516  0
O  O241  1  0.31848328  0.47120346  0.55402238  1  -1.272188  0  -0.590614  -0.781392  0  2.022588  0
O  O242  1  0.81849290  0.97119933  0.94596802  1  -1.271765  0  -0.59074  -0.78163  0  2.022342  0
O  O243  1  0.68151685  0.52879685  0.44596240  1  -1.271824  0  -0.590695  -0.781558  0  2.022414  0
O  O244  1  0.23484888  0.82859093  0.89231529  1  -1.222916  0  -0.56747  -0.733599  0  2.011595  0
O  O245  1  0.26514484  0.67141375  0.39231368  1  -1.222832  0  -0.567461  -0.733581  0  2.011521  0
O  O246  1  0.76513224  0.17141114  0.10768618  1  -1.222948  0  -0.56741  -0.733492  0  2.011729  0
O  O247  1  0.73486153  0.32859708  0.60768176  1  -1.223093  0  -0.567398  -0.733531  0  2.011774  0
O  O248  1  0.47935509  0.88108481  0.99951049  1  -1.245091  0  -0.578128  -0.742619  0  2.033255  0
O  O249  1  0.02064995  0.61892025  0.49951263  1  -1.244409  0  -0.578149  -0.742628  0  2.033244  0
O  O250  1  0.52064162  0.11891546  0.00048263  1  -1.24413  0  -0.578117  -0.742603  0  2.033191  0
O  O251  1  0.97934564  0.38108002  0.50048559  1  -1.244472  0  -0.578086  -0.74265  0  2.033173  0
