# generated using pymatgen
data_AlH4C10SO6F
_symmetry_space_group_name_H-M   'P 1'
_cell_length_a   6.59185589
_cell_length_b   11.22799893
_cell_length_c   12.41463162
_cell_angle_alpha   76.89360007
_cell_angle_beta   78.99993323
_cell_angle_gamma   70.90249402
_symmetry_Int_Tables_number   1
_chemical_formula_structural   AlH4C10SO6F
_chemical_formula_sum   'Al2 H8 C20 S2 O12 F2'
_cell_volume   838.84343129
_cell_formula_units_Z   2
loop_
 _symmetry_equiv_pos_site_id
 _symmetry_equiv_pos_as_xyz
  1  'x, y, z'
loop_
 _atom_site_type_symbol
 _atom_site_label
 _atom_site_symmetry_multiplicity
 _atom_site_fract_x
 _atom_site_fract_y
 _atom_site_fract_z
 _atom_site_occupancy
 _atom_site_pbe_bader_charge
 _atom_site_pbe_bader_spin_density
 _atom_site_pbe_cm5_charge
 _atom_site_pbe_ddec_charge
 _atom_site_pbe_ddec_spin_density
 _atom_site_pbe_ddec_sum_bond_order
 _atom_site_pbe_magmom
Al  Al0  1  0.49979498  0.49725737  0.50192515  1  2.501189  0  0.389798  1.64133  0  2.588639  0
Al  Al1  1  0.00095036  0.49336975  0.50466800  1  2.498968  0  0.397837  1.634311  0  2.565648  0
H  H2  1  0.27257191  0.38645299  0.62998199  1  0.625679  0  0.35407  0.440228  0  0.845602  0
H  H3  1  0.68889541  0.65867207  0.44775764  1  0.613626  0  0.345041  0.422135  0  0.877412  0
H  H4  1  0.23559517  0.24553609  0.35604188  1  0.11425  0  0.104116  0.111462  0  1.039646  0
H  H5  1  0.56964087  0.13832870  0.24481508  1  0.038838  0  0.099604  0.09729  0  0.997366  0
H  H6  1  0.42661499  0.77920477  0.35031805  1  0.106072  0  0.108558  0.112836  0  1.033828  0
H  H7  1  0.66238670  0.90455058  0.24011891  1  0.07298  0  0.103202  0.102625  0  0.986118  0
H  H8  1  0.16073933  0.41956155  0.89278557  1  0.600018  0  0.303169  0.31974  0  0.982257  0
H  H9  1  0.83004181  0.57290290  0.11501522  1  0.610474  0  0.303291  0.315974  0  0.981809  0
C  C10  1  0.86500945  0.27512515  0.48643372  1  1.60079  0  0.27487  0.667535  0  4.085976  0
C  C11  1  0.69436208  0.47040666  0.70294751  1  1.598781  0  0.256235  0.660928  0  4.150772  0
C  C12  1  0.13287572  0.72217563  0.50664268  1  1.622028  0  0.272072  0.672697  0  4.086128  0
C  C13  1  0.30284626  0.51754814  0.30544021  1  1.60579  0  0.257126  0.65358  0  4.15395  0
C  C14  1  0.43507590  0.45131278  0.88440649  1  0.634673  0  0.092914  0.29152  0  4.062509  0
C  C15  1  0.55717594  0.53973095  0.12318793  1  0.586203  0  0.093601  0.288852  0  4.073579  0
C  C16  1  0.62094290  0.47593611  0.82089818  1  -0.132983  0  -0.030754  -0.229283  0  3.888782  0
C  C17  1  0.37224468  0.51414790  0.18708078  1  -0.116741  0  -0.03203  -0.236638  0  3.899818  0
C  C18  1  0.57917795  0.51635805  0.01292498  1  -0.122982  0  -0.03619  -0.130576  0  4.128304  0
C  C19  1  0.41309626  0.47414484  0.99487676  1  -0.149315  0  -0.034788  -0.129763  0  4.122832  0
C  C20  1  0.93878944  0.13447206  0.48391823  1  0.043313  0  -0.012196  -0.174979  0  3.951774  0
C  C21  1  0.13840782  0.07338761  0.42217545  1  0.054453  0  0.001722  0.073095  0  3.959254  0
C  C22  1  0.80827726  0.06172668  0.54424567  1  0.558827  0  0.101041  0.162561  0  4.087797  0
C  C23  1  0.27740463  0.14336263  0.35631059  1  -0.081589  0  -0.091757  -0.12914  0  3.964404  0
C  C24  1  0.46430208  0.08304821  0.29399074  1  -0.008097  0  -0.095147  -0.086635  0  4.053338  0
C  C25  1  0.06303531  0.86514824  0.49281238  1  0.056403  0  -0.016692  -0.180334  0  3.961748  0
C  C26  1  0.87098024  0.92796597  0.54952488  1  0.459445  0  0.099236  0.166386  0  4.088885  0
C  C27  1  0.19804090  0.93779019  0.42431079  1  0.002591  0  -0.000361  0.071592  0  3.960911  0
C  C28  1  0.38708540  0.88004320  0.35539288  1  -0.032375  0  -0.09288  -0.135833  0  3.966383  0
C  C29  1  0.51794256  0.95099851  0.29222183  1  -0.064196  0  -0.093869  -0.082856  0  4.045409  0
S  S30  1  0.76306949  0.53008873  0.89516216  1  0.217829  0  0.081815  0.116557  0  2.877399  0
S  S31  1  0.22960365  0.46001265  0.11293323  1  0.209018  0  0.084751  0.115848  0  2.885028  0
O  O32  1  0.67583715  0.33656016  0.46208451  1  -1.248558  0  -0.227811  -0.571448  0  2.320919  0
O  O33  1  0.87383842  0.49316729  0.66114814  1  -1.246068  0  -0.244139  -0.590482  0  2.291422  0
O  O34  1  0.00035377  0.67008254  0.48904333  1  -1.259792  0  -0.232027  -0.596211  0  2.345378  0
O  O35  1  0.42132555  0.55073160  0.35579379  1  -1.248245  0  -0.233105  -0.582421  0  2.382761  0
O  O36  1  0.32232052  0.66474937  0.53317914  1  -1.254856  0  -0.235068  -0.589081  0  2.321352  0
O  O37  1  0.13113472  0.48713998  0.35026130  1  -1.248981  0  -0.236522  -0.570623  0  2.294195  0
O  O38  1  0.99459898  0.32157028  0.51487660  1  -1.25229  0  -0.226054  -0.576253  0  2.330972  0
O  O39  1  0.57108614  0.44317742  0.65086221  1  -1.261103  0  -0.236295  -0.594371  0  2.367871  0
O  O40  1  0.26963629  0.42977473  0.55292491  1  -1.420459  0  -0.447438  -0.994553  0  2.198122  0
O  O41  1  0.72969951  0.56588541  0.45778630  1  -1.414726  0  -0.44888  -0.988002  0  2.203276  0
O  O42  1  0.29902628  0.40978425  0.84415027  1  -1.114165  0  -0.325071  -0.386734  0  2.342341  0
O  O43  1  0.69140496  0.58241584  0.16323511  1  -1.117249  0  -0.318532  -0.367822  0  2.348819  0
F  F44  1  0.74003718  0.86318291  0.61678198  1  -0.620641  0  -0.091378  -0.112868  0  1.359758  0
F  F45  1  0.62076968  0.11417499  0.60589961  1  -0.616822  0  -0.085086  -0.102179  0  1.365438  0
