# generated using pymatgen
data_Cu3H6C10(BrN2)3
_symmetry_space_group_name_H-M   'P 1'
_cell_length_a   6.58659958
_cell_length_b   8.19043979
_cell_length_c   13.99908146
_cell_angle_alpha   97.38903164
_cell_angle_beta   90.00002635
_cell_angle_gamma   89.99867787
_symmetry_Int_Tables_number   1
_chemical_formula_structural   Cu3H6C10(BrN2)3
_chemical_formula_sum   'Cu6 H12 C20 Br6 N12'
_cell_volume   748.93909052
_cell_formula_units_Z   2
loop_
 _symmetry_equiv_pos_site_id
 _symmetry_equiv_pos_as_xyz
  1  'x, y, z'
loop_
 _atom_site_type_symbol
 _atom_site_label
 _atom_site_symmetry_multiplicity
 _atom_site_fract_x
 _atom_site_fract_y
 _atom_site_fract_z
 _atom_site_occupancy
 _atom_site_hle17_bader_spin_density
 _atom_site_hle17_ddec_charge
 _atom_site_hle17_ddec_spin_density
 _atom_site_hle17_ddec_sum_bond_order
 _atom_site_hle17_magmom
 _atom_site_hse06_10hf_bader_spin_density
 _atom_site_hse06_10hf_ddec_charge
 _atom_site_hse06_10hf_ddec_spin_density
 _atom_site_hse06_10hf_ddec_sum_bond_order
 _atom_site_hse06_10hf_magmom
 _atom_site_hse06_bader_spin_density
 _atom_site_hse06_ddec_charge
 _atom_site_hse06_ddec_spin_density
 _atom_site_hse06_ddec_sum_bond_order
 _atom_site_hse06_magmom
 _atom_site_pbe_bader_spin_density
 _atom_site_pbe_cm5_charge
 _atom_site_pbe_ddec_charge
 _atom_site_pbe_ddec_spin_density
 _atom_site_pbe_ddec_sum_bond_order
 _atom_site_pbe_magmom
Cu  Cu0  1  0.75550210  0.99999516  0.24999995  1  0  0.442758  0  1.979515  0  0  0.332925  0  2.476373  0  0  0.322174  0  2.437325  0  0  0.431061  0.344236  0  2.498759  0
Cu  Cu1  1  0.24447162  0.00000000  0.74999903  1  0  0.44273  0  1.979595  0  0  0.332897  0  2.476478  0  0  0.322137  0  2.437422  0  0  0.431033  0.344199  0  2.498883  0
Cu  Cu2  1  0.71624493  0.59302596  0.37518076  1  0  0.505185  0  2.107303  0  0  0.41328  0  2.619343  0  0  0.40141  0  2.57968  0  0  0.468946  0.424288  0  2.642767  0
Cu  Cu3  1  0.28375537  0.59304885  0.87516067  1  0  0.505354  0  2.107341  0  0  0.413399  0  2.619525  0  0  0.401562  0  2.57979  0  0  0.469006  0.42447  0  2.642845  0
Cu  Cu4  1  0.28375005  0.40696797  0.62481813  1  0  0.505261  0  2.107344  0  0  0.413351  0  2.619408  0  0  0.401498  0  2.5797  0  0  0.468976  0.424372  0  2.642831  0
Cu  Cu5  1  0.71626086  0.40695614  0.12483546  1  0  0.505118  0  2.107165  0  0  0.413148  0  2.61927  0  0  0.401326  0  2.579523  0  0  0.468879  0.424188  0  2.642632  0
H  H6  1  0.83752309  0.83549120  0.72373443  1  0  0.103415  0  0.956667  0  0  0.107226  0  1.026422  0  0  0.111842  0  1.022333  0  0  0.1086  0.103718  0  1.029662  0
H  H7  1  0.16246695  0.83545922  0.22373324  1  0  0.103399  0  0.956572  0  0  0.107166  0  1.026391  0  0  0.111782  0  1.022298  0  0  0.108507  0.10366  0  1.029629  0
H  H8  1  0.16248100  0.16450520  0.27626822  1  0  0.103431  0  0.956674  0  0  0.107237  0  1.026431  0  0  0.111853  0  1.022339  0  0  0.1086  0.103731  0  1.029672  0
H  H9  1  0.83753713  0.16455316  0.77626344  1  0  0.103364  0  0.956548  0  0  0.107126  0  1.02638  0  0  0.111744  0  1.022286  0  0  0.108482  0.103619  0  1.029618  0
H  H10  1  0.31503969  0.91458001  0.53858097  1  0  0.090211  0  0.969338  0  0  0.091548  0  1.043382  0  0  0.095692  0  1.040164  0  0  0.102099  0.08853  0  1.045836  0
H  H11  1  0.68494915  0.91457857  0.03858407  1  0  0.090208  0  0.969302  0  0  0.091559  0  1.043346  0  0  0.095682  0  1.040145  0  0  0.102069  0.08854  0  1.045797  0
H  H12  1  0.68494466  0.08542498  0.46141445  1  0  0.090169  0  0.969338  0  0  0.091471  0  1.043457  0  0  0.095623  0  1.040229  0  0  0.102061  0.088453  0  1.045895  0
H  H13  1  0.31504582  0.08541165  0.96141169  1  0  0.090184  0  0.969556  0  0  0.091573  0  1.043572  0  0  0.095671  0  1.04039  0  0  0.102091  0.088564  0  1.046018  0
H  H14  1  0.13387555  0.74624291  0.40220225  1  0  0.098571  0  0.963226  0  0  0.102719  0  1.031861  0  0  0.106648  0  1.030263  0  0  0.103977  0.099803  0  1.033277  0
H  H15  1  0.86612508  0.74625094  0.90220095  1  0  0.098585  0  0.963211  0  0  0.102734  0  1.031841  0  0  0.106665  0  1.03024  0  0  0.103938  0.099812  0  1.033259  0
H  H16  1  0.86610577  0.25375962  0.59779371  1  0  0.098615  0  0.963137  0  0  0.102689  0  1.031875  0  0  0.106618  0  1.030277  0  0  0.103941  0.09977  0  1.033298  0
H  H17  1  0.13388356  0.25372943  0.09779552  1  0  0.098577  0  0.963146  0  0  0.102669  0  1.031871  0  0  0.106598  0  1.030273  0  0  0.103939  0.099748  0  1.033291  0
C  C18  1  0.80661930  0.72258852  0.57643284  1  0  0.13443  0  3.826431  0  0  0.142555  0  4.064498  0  0  0.144838  0  4.074464  0  0  0.123138  0.139935  0  4.059197  0
C  C19  1  0.19337655  0.72256209  0.07643277  1  0  0.134735  0  3.82618  0  0  0.142622  0  4.064564  0  0  0.144875  0  4.07458  0  0  0.123208  0.140004  0  4.059259  0
C  C20  1  0.19337719  0.27740050  0.42356926  1  0  0.134403  0  3.826557  0  0  0.142525  0  4.06461  0  0  0.144791  0  4.074589  0  0  0.123126  0.139902  0  4.059311  0
C  C21  1  0.80663968  0.27744539  0.92356926  1  0  0.134532  0  3.826179  0  0  0.142357  0  4.064711  0  0  0.144614  0  4.07473  0  0  0.123088  0.139737  0  4.059411  0
C  C22  1  0.90747590  0.81648878  0.65267871  1  0  0.082613  0  3.633866  0  0  0.044782  0  3.882029  0  0  0.051476  0  3.890335  0  0  0.05589  0.040118  0  3.877368  0
C  C23  1  0.09251297  0.81645569  0.15267888  1  0  0.08243  0  3.633754  0  0  0.044707  0  3.881928  0  0  0.051413  0  3.890239  0  0  0.055961  0.040043  0  3.877261  0
C  C24  1  0.09252819  0.18351253  0.34732001  1  0  0.082638  0  3.633573  0  0  0.044836  0  3.881686  0  0  0.051543  0  3.889989  0  0  0.055859  0.040177  0  3.877033  0
C  C25  1  0.90749567  0.18354932  0.84732011  1  0  0.082591  0  3.633565  0  0  0.044891  0  3.881783  0  0  0.051598  0  3.890093  0  0  0.056022  0.040218  0  3.87712  0
C  C26  1  0.16814982  0.85853412  0.54955592  1  0  0.092299  0  3.634106  0  0  0.061601  0  3.887544  0  0  0.069705  0  3.896056  0  0  0.042554  0.055173  0  3.884223  0
C  C27  1  0.83184214  0.85852617  0.04956209  1  0  0.092176  0  3.634029  0  0  0.06147  0  3.887426  0  0  0.069585  0  3.895951  0  0  0.042487  0.055027  0  3.884124  0
C  C28  1  0.83184060  0.14146595  0.45044057  1  0  0.092438  0  3.63434  0  0  0.061766  0  3.887734  0  0  0.069853  0  3.896239  0  0  0.042606  0.055376  0  3.884368  0
C  C29  1  0.16817257  0.14146778  0.95044181  1  0  0.092289  0  3.634546  0  0  0.061508  0  3.887954  0  0  0.06966  0  3.896481  0  0  0.042538  0.055069  0  3.884616  0
C  C30  1  0.06715201  0.76630251  0.47405662  1  0  0.082108  0  3.649111  0  0  0.052896  0  3.909318  0  0  0.055058  0  3.918035  0  0  0.040731  0.050771  0  3.904488  0
C  C31  1  0.93284521  0.76629449  0.97405556  1  0  0.082103  0  3.648927  0  0  0.052932  0  3.908991  0  0  0.055096  0  3.917708  0  0  0.040826  0.050815  0  3.904157  0
C  C32  1  0.93283234  0.23369141  0.52594013  1  0  0.082022  0  3.649425  0  0  0.05287  0  3.90959  0  0  0.055039  0  3.918307  0  0  0.040687  0.050734  0  3.904776  0
C  C33  1  0.06716950  0.23369450  0.02594083  1  0  0.0821  0  3.649525  0  0  0.052982  0  3.909607  0  0  0.055148  0  3.91831  0  0  0.040732  0.050851  0  3.904789  0
C  C34  1  0.37747407  0.35814633  0.40636374  1  0  0.285115  0  3.668132  0  0  0.259043  0  3.941062  0  0  0.273182  0  3.948579  0  0  0.199516  0.249348  0  3.93745  0
C  C35  1  0.62255568  0.35818122  0.90636089  1  0  0.285143  0  3.667533  0  0  0.259141  0  3.940584  0  0  0.27328  0  3.94813  0  0  0.199496  0.249439  0  3.936977  0
C  C36  1  0.62253154  0.64184394  0.59364417  1  0  0.285112  0  3.667914  0  0  0.259051  0  3.940846  0  0  0.273185  0  3.948366  0  0  0.199478  0.249361  0  3.937234  0
C  C37  1  0.37747877  0.64181890  0.09364703  1  0  0.28525  0  3.66834  0  0  0.25929  0  3.941285  0  0  0.273425  0  3.948821  0  0  0.199579  0.249586  0  3.937674  0
Br  Br38  1  0.97164644  0.49997751  0.25000923  1  0  -0.535631  0  1.324217  0  0  -0.474311  0  1.723266  0  0  -0.49431  0  1.694709  0  0  -0.259662  -0.459966  0  1.741264  0
Br  Br39  1  0.02836676  0.50005088  0.74999149  1  0  -0.53568  0  1.324321  0  0  -0.474323  0  1.723313  0  0  -0.494327  0  1.69476  0  0  -0.259631  -0.459985  0  1.741316  0
Br  Br40  1  0.51717673  0.83283327  0.33433381  1  0  -0.539267  0  1.279032  0  0  -0.473229  0  1.668723  0  0  -0.497242  0  1.642375  0  0  -0.268536  -0.455699  0  1.684757  0
Br  Br41  1  0.48282280  0.83284747  0.83433019  1  0  -0.539238  0  1.279091  0  0  -0.473241  0  1.668881  0  0  -0.497257  0  1.642512  0  0  -0.268504  -0.455712  0  1.684903  0
Br  Br42  1  0.48279092  0.16717670  0.66567555  1  0  -0.539253  0  1.279094  0  0  -0.473219  0  1.668811  0  0  -0.497234  0  1.642457  0  0  -0.268537  -0.45569  0  1.684854  0
Br  Br43  1  0.51717066  0.16716243  0.16566274  1  0  -0.539261  0  1.279105  0  0  -0.473238  0  1.668868  0  0  -0.497263  0  1.642506  0  0  -0.268517  -0.455696  0  1.684881  0
N  N44  1  0.88479038  0.69693406  0.48574637  1  0  -0.271774  0  3.314999  0  0  -0.220262  0  3.612212  0  0  -0.216112  0  3.610621  0  0  -0.339915  -0.22329  0  3.613375  0
N  N45  1  0.11521034  0.69692092  0.98574723  1  0  -0.271701  0  3.314719  0  0  -0.220116  0  3.611928  0  0  -0.215965  0  3.61036  0  0  -0.339844  -0.223149  0  3.613095  0
N  N46  1  0.11520460  0.30305495  0.51425359  1  0  -0.271752  0  3.315084  0  0  -0.220208  0  3.612225  0  0  -0.216054  0  3.610634  0  0  -0.339837  -0.223232  0  3.613396  0
N  N47  1  0.88481196  0.30307304  0.01425810  1  0  -0.271624  0  3.314731  0  0  -0.219975  0  3.611931  0  0  -0.215822  0  3.610353  0  0  -0.339854  -0.223001  0  3.613092  0
N  N48  1  0.08945343  0.88478673  0.63971215  1  0  -0.24064  0  3.339776  0  0  -0.174261  0  3.642641  0  0  -0.174544  0  3.639891  0  0  -0.349861  -0.175107  0  3.644752  0
N  N49  1  0.91053197  0.88476001  0.13971692  1  0  -0.240565  0  3.339834  0  0  -0.174219  0  3.642689  0  0  -0.174505  0  3.639947  0  0  -0.349837  -0.17506  0  3.644786  0
N  N50  1  0.91053547  0.11521088  0.36028488  1  0  -0.240795  0  3.339391  0  0  -0.17447  0  3.642306  0  0  -0.17476  0  3.639574  0  0  -0.349842  -0.175332  0  3.644423  0
N  N51  1  0.08946908  0.11523269  0.86028475  1  0  -0.240733  0  3.339916  0  0  -0.174382  0  3.642839  0  0  -0.174674  0  3.640087  0  0  -0.349861  -0.175217  0  3.644944  0
N  N52  1  0.52296083  0.43168819  0.39030252  1  0  -0.375819  0  3.132703  0  0  -0.33716  0  3.476281  0  0  -0.335839  0  3.468318  0  0  -0.372849  -0.339705  0  3.482138  0
N  N53  1  0.47701822  0.43170985  0.89029015  1  0  -0.376074  0  3.131969  0  0  -0.337396  0  3.475593  0  0  -0.336075  0  3.467643  0  0  -0.372923  -0.339946  0  3.481448  0
N  N54  1  0.47703718  0.56830206  0.60970039  1  0  -0.375867  0  3.132524  0  0  -0.33721  0  3.476106  0  0  -0.335894  0  3.468154  0  0  -0.372849  -0.339744  0  3.481937  0
N  N55  1  0.52297371  0.56831854  0.10970914  1  0  -0.375982  0  3.132859  0  0  -0.337319  0  3.47634  0  0  -0.336012  0  3.468389  0  0  -0.372866  -0.339857  0  3.48219  0
