# generated using pymatgen
data_ZnH8C12N3ClO
_symmetry_space_group_name_H-M   'P 1'
_cell_length_a   7.25627638
_cell_length_b   10.96847309
_cell_length_c   15.79624427
_cell_angle_alpha   85.65265511
_cell_angle_beta   76.70887481
_cell_angle_gamma   70.71576653
_symmetry_Int_Tables_number   1
_chemical_formula_structural   ZnH8C12N3ClO
_chemical_formula_sum   'Zn4 H32 C48 N12 Cl4 O4'
_cell_volume   1154.90068590
_cell_formula_units_Z   4
loop_
 _symmetry_equiv_pos_site_id
 _symmetry_equiv_pos_as_xyz
  1  'x, y, z'
loop_
 _atom_site_type_symbol
 _atom_site_label
 _atom_site_symmetry_multiplicity
 _atom_site_fract_x
 _atom_site_fract_y
 _atom_site_fract_z
 _atom_site_occupancy
 _atom_site_hle17_bader_spin_density
 _atom_site_hle17_ddec_charge
 _atom_site_hle17_ddec_spin_density
 _atom_site_hle17_ddec_sum_bond_order
 _atom_site_hle17_magmom
 _atom_site_hse06_10hf_bader_spin_density
 _atom_site_hse06_10hf_ddec_charge
 _atom_site_hse06_10hf_ddec_spin_density
 _atom_site_hse06_10hf_ddec_sum_bond_order
 _atom_site_hse06_10hf_magmom
 _atom_site_hse06_bader_spin_density
 _atom_site_hse06_ddec_charge
 _atom_site_hse06_ddec_spin_density
 _atom_site_hse06_ddec_sum_bond_order
 _atom_site_hse06_magmom
 _atom_site_pbe_bader_spin_density
 _atom_site_pbe_cm5_charge
 _atom_site_pbe_ddec_charge
 _atom_site_pbe_ddec_spin_density
 _atom_site_pbe_ddec_sum_bond_order
 _atom_site_pbe_magmom
Zn  Zn0  1  0.32143965  0.66704477  0.89302268  1  0  0.927779  0  1.984048  0  0  0.74748  0  2.472183  0  0  0.789721  0  2.422741  0  0  0.628234  0.719046  0  2.504506  0
Zn  Zn1  1  0.88111102  0.33297719  0.10697682  1  0  0.927033  0  1.983927  0  0  0.746944  0  2.471256  0  0  0.789126  0  2.421937  0  0  0.627607  0.717705  0  2.504908  0
Zn  Zn2  1  0.96469499  0.16713295  0.60690836  1  0  0.926436  0  1.984419  0  0  0.745993  0  2.472795  0  0  0.788193  0  2.423443  0  0  0.627445  0.717576  0  2.505043  0
Zn  Zn3  1  0.73848177  0.83285074  0.39302634  1  0  0.9276  0  1.985212  0  0  0.747491  0  2.472759  0  0  0.789674  0  2.423362  0  0  0.62829  0.718255  0  2.506415  0
H  H4  1  0.27289196  0.88276484  0.03806647  1  0  0.108487  0  0.980566  0  0  0.115104  0  1.047631  0  0  0.118383  0  1.04592  0  0  0.090393  0.112592  0  1.049129  0
H  H5  1  0.19274429  0.11734014  0.96204178  1  0  0.108202  0  0.979938  0  0  0.114474  0  1.047769  0  0  0.117793  0  1.045993  0  0  0.090392  0.112567  0  1.048014  0
H  H6  1  0.06167615  0.38268395  0.46188335  1  0  0.108536  0  0.979744  0  0  0.115224  0  1.046824  0  0  0.118499  0  1.045113  0  0  0.090374  0.112701  0  1.048345  0
H  H7  1  0.90475131  0.61745233  0.53809976  1  0  0.108196  0  0.981328  0  0  0.114475  0  1.049137  0  0  0.11779  0  1.047347  0  0  0.090714  0.112595  0  1.049336  0
H  H8  1  0.25175386  0.94976513  0.18700050  1  0  0.078802  0  0.986325  0  0  0.091803  0  1.04861  0  0  0.093613  0  1.048281  0  0  0.091117  0.090481  0  1.048893  0
H  H9  1  0.38793434  0.05019433  0.81317944  1  0  0.079676  0  0.986283  0  0  0.092477  0  1.048632  0  0  0.09433  0  1.048245  0  0  0.091328  0.091159  0  1.04887  0
H  H10  1  0.19035316  0.44963492  0.31305544  1  0  0.079002  0  0.986105  0  0  0.091831  0  1.04839  0  0  0.093712  0  1.047986  0  0  0.090984  0.090465  0  1.048734  0
H  H11  1  0.95101194  0.55049414  0.68691714  1  0  0.079168  0  0.985854  0  0  0.091696  0  1.048673  0  0  0.093591  0  1.048246  0  0  0.090466  0.090373  0  1.048908  0
H  H12  1  0.82277099  0.53105196  0.83537068  1  0  0.122058  0  0.935063  0  0  0.130749  0  0.99638  0  0  0.133982  0  0.994964  0  0  0.116344  0.1285  0  0.99743  0
H  H13  1  0.18842409  0.46887149  0.16496750  1  0  0.12279  0  0.934955  0  0  0.131531  0  0.99624  0  0  0.13469  0  0.994932  0  0  0.117274  0.129269  0  0.997296  0
H  H14  1  0.40755614  0.03082721  0.66468832  1  0  0.122744  0  0.935077  0  0  0.131738  0  0.995977  0  0  0.134923  0  0.99464  0  0  0.116767  0.12953  0  0.996955  0
H  H15  1  0.10320796  0.96917791  0.33516618  1  0  0.12247  0  0.935113  0  0  0.130879  0  0.996931  0  0  0.134101  0  0.99554  0  0  0.116589  0.128564  0  0.998032  0
H  H16  1  0.62031262  0.24423753  0.99659528  1  0  0.123409  0  0.936367  0  0  0.133246  0  0.991362  0  0  0.13659  0  0.989948  0  0  0.112102  0.130718  0  0.992707  0
H  H17  1  0.86218809  0.75562218  0.00332897  1  0  0.122816  0  0.936133  0  0  0.132567  0  0.991445  0  0  0.135929  0  0.990008  0  0  0.111754  0.130216  0  0.992546  0
H  H18  1  0.36756328  0.74398023  0.50309104  1  0  0.122573  0  0.937842  0  0  0.132174  0  0.993324  0  0  0.135522  0  0.991914  0  0  0.111434  0.129701  0  0.994593  0
H  H19  1  0.61539793  0.25593828  0.49697124  1  0  0.123581  0  0.936865  0  0  0.133533  0  0.99199  0  0  0.136909  0  0.990531  0  0  0.112034  0.13117  0  0.993109  0
H  H20  1  0.42034262  0.79483144  0.29124449  1  0  0.081223  0  0.967136  0  0  0.09002  0  1.034654  0  0  0.093286  0  1.03268  0  0  0.088707  0.087614  0  1.036211  0
H  H21  1  0.50628787  0.20500393  0.70891296  1  0  0.080673  0  0.967323  0  0  0.089388  0  1.035167  0  0  0.092589  0  1.033262  0  0  0.088496  0.087129  0  1.036464  0
H  H22  1  0.46286413  0.29460534  0.20874078  1  0  0.080981  0  0.96781  0  0  0.089809  0  1.03531  0  0  0.093055  0  1.033358  0  0  0.088885  0.087406  0  1.036856  0
H  H23  1  0.96477888  0.70539467  0.79121837  1  0  0.08019  0  0.968459  0  0  0.088888  0  1.036218  0  0  0.092075  0  1.034354  0  0  0.088077  0.086617  0  1.037526  0
H  H24  1  0.61383612  0.56712386  0.24832178  1  0  0.110644  0  0.9878  0  0  0.114519  0  1.059843  0  0  0.118663  0  1.057107  0  0  0.092337  0.111501  0  1.061835  0
H  H25  1  0.42932201  0.43282353  0.75166718  1  0  0.110442  0  0.987744  0  0  0.113729  0  1.060442  0  0  0.11792  0  1.057647  0  0  0.091944  0.110673  0  1.062609  0
H  H26  1  0.61260735  0.06671086  0.25154598  1  0  0.109925  0  0.988859  0  0  0.113439  0  1.061247  0  0  0.1176  0  1.058506  0  0  0.091991  0.110436  0  1.063256  0
H  H27  1  0.93088453  0.93312091  0.74832836  1  0  0.109877  0  0.988751  0  0  0.113409  0  1.06099  0  0  0.117574  0  1.058229  0  0  0.091931  0.110364  0  1.063153  0
H  H28  1  0.00112128  0.35904986  0.72053118  1  0  0.105457  0  0.952749  0  0  0.115318  0  1.013898  0  0  0.118643  0  1.009889  0  0  0.126618  0.112778  0  1.016979  0
H  H29  1  0.07963466  0.64097056  0.27975170  1  0  0.104192  0  0.953158  0  0  0.113691  0  1.014329  0  0  0.116999  0  1.010317  0  0  0.125574  0.111267  0  1.017214  0
H  H30  1  0.47057751  0.85883441  0.77948095  1  0  0.1048  0  0.953588  0  0  0.115138  0  1.013538  0  0  0.118459  0  1.009499  0  0  0.126444  0.112576  0  1.016661  0
H  H31  1  0.10885799  0.14115787  0.22029473  1  0  0.10494  0  0.954293  0  0  0.115182  0  1.014289  0  0  0.118519  0  1.010216  0  0  0.126252  0.112745  0  1.017195  0
H  H32  1  0.79834017  0.08710572  0.87331750  1  0  0.122902  0  0.921439  0  0  0.132812  0  0.978587  0  0  0.135996  0  0.975771  0  0  0.131358  0.130421  0  0.980807  0
H  H33  1  0.75957504  0.91291934  0.12653500  1  0  0.122753  0  0.922982  0  0  0.132942  0  0.978988  0  0  0.136105  0  0.976227  0  0  0.130961  0.130493  0  0.981358  0
H  H34  1  0.42185579  0.58680973  0.62634936  1  0  0.122922  0  0.923357  0  0  0.132969  0  0.979303  0  0  0.13605  0  0.976596  0  0  0.131247  0.130662  0  0.98141  0
H  H35  1  0.63575167  0.41315322  0.37369671  1  0  0.123079  0  0.923036  0  0  0.13346  0  0.978712  0  0  0.136546  0  0.976021  0  0  0.130768  0.131049  0  0.981052  0
C  C36  1  0.70554627  0.40222806  0.92579756  1  0  0.027187  0  3.763545  0  0  0.034969  0  4.008596  0  0  0.037709  0  4.025834  0  0  0.004622  0.03312  0  3.997067  0
C  C37  1  0.03392734  0.59771051  0.07429280  1  0  0.026693  0  3.76283  0  0  0.034767  0  4.00724  0  0  0.037564  0  4.024385  0  0  0.002948  0.032584  0  3.996219  0
C  C38  1  0.38140565  0.90201258  0.57405592  1  0  0.026121  0  3.763571  0  0  0.034836  0  4.008376  0  0  0.037661  0  4.025522  0  0  0.004803  0.03297  0  3.996886  0
C  C39  1  0.85783684  0.09793968  0.42584256  1  0  0.025945  0  3.76604  0  0  0.036427  0  4.007782  0  0  0.039238  0  4.024968  0  0  0.004608  0.034232  0  3.996742  0
C  C40  1  0.34830295  0.81468854  0.08291017  1  0  -0.159792  0  3.762853  0  0  -0.175113  0  4.009022  0  0  -0.17903  0  4.031032  0  0  -0.105581  -0.172429  0  3.994318  0
C  C41  1  0.24499193  0.18539651  0.91714849  1  0  -0.159845  0  3.762409  0  0  -0.175332  0  4.009349  0  0  -0.179262  0  4.031308  0  0  -0.105845  -0.172474  0  3.993374  0
C  C42  1  0.18194716  0.31452544  0.41704826  1  0  -0.159746  0  3.762362  0  0  -0.175338  0  4.008395  0  0  -0.179242  0  4.030425  0  0  -0.10523  -0.172663  0  3.993682  0
C  C43  1  0.91201867  0.68560250  0.58294524  1  0  -0.160256  0  3.763446  0  0  -0.175878  0  4.010145  0  0  -0.179803  0  4.032128  0  0  -0.10579  -0.173044  0  3.994182  0
C  C44  1  0.33697207  0.85074166  0.16698147  1  0  -0.076214  0  3.800801  0  0  -0.0959  0  4.058743  0  0  -0.097748  0  4.08236  0  0  -0.108346  -0.094518  0  4.042527  0
C  C45  1  0.35406386  0.14926222  0.83313005  1  0  -0.076865  0  3.803229  0  0  -0.096407  0  4.061209  0  0  -0.098283  0  4.084812  0  0  -0.10817  -0.095034  0  4.045022  0
C  C46  1  0.25516339  0.35053512  0.33301781  1  0  -0.07563  0  3.801676  0  0  -0.095029  0  4.059729  0  0  -0.096955  0  4.083343  0  0  -0.108356  -0.093604  0  4.043509  0
C  C47  1  0.93705986  0.64957840  0.66696707  1  0  -0.075475  0  3.801074  0  0  -0.094646  0  4.058796  0  0  -0.096575  0  4.082408  0  0  -0.107945  -0.09325  0  4.042581  0
C  C48  1  0.45794429  0.68630588  0.05896690  1  0  0.143509  0  3.835965  0  0  0.14378  0  4.07468  0  0  0.146512  0  4.100437  0  0  0.074523  0.141927  0  4.057186  0
C  C49  1  0.20267957  0.31377959  0.94104856  1  0  0.145052  0  3.836629  0  0  0.1453  0  4.075123  0  0  0.148022  0  4.100888  0  0  0.075691  0.143443  0  4.057518  0
C  C50  1  0.26731540  0.18611360  0.44093771  1  0  0.14459  0  3.838006  0  0  0.14549  0  4.075741  0  0  0.148202  0  4.101531  0  0  0.076294  0.14367  0  4.058198  0
C  C51  1  0.89346964  0.81398761  0.55902830  1  0  0.145416  0  3.835557  0  0  0.146145  0  4.073396  0  0  0.148892  0  4.099111  0  0  0.075999  0.144275  0  4.05582  0
C  C52  1  0.81183040  0.43445785  0.84639041  1  0  -0.089826  0  3.687387  0  0  -0.112443  0  3.947978  0  0  -0.11575  0  3.964408  0  0  -0.067971  -0.110676  0  3.937299  0
C  C53  1  0.09236540  0.56548783  0.15380138  1  0  -0.09075  0  3.690383  0  0  -0.113213  0  3.948793  0  0  -0.116487  0  3.965187  0  0  -0.067815  -0.111254  0  3.938017  0
C  C54  1  0.40784084  0.93422021  0.65355767  1  0  -0.092201  0  3.691364  0  0  -0.11477  0  3.94951  0  0  -0.118055  0  3.965898  0  0  -0.068317  -0.113026  0  3.938812  0
C  C55  1  0.99585408  0.06576516  0.34630918  1  0  -0.090521  0  3.689388  0  0  -0.113361  0  3.947425  0  0  -0.116691  0  3.963838  0  0  -0.068087  -0.111357  0  3.936648  0
C  C56  1  0.69985860  0.27534705  0.93648930  1  0  -0.108866  0  3.72249  0  0  -0.130195  0  3.979934  0  0  -0.134479  0  3.99763  0  0  -0.070797  -0.127726  0  3.968339  0
C  C57  1  0.91237843  0.72460139  0.06350309  1  0  -0.109445  0  3.723836  0  0  -0.130037  0  3.978559  0  0  -0.134387  0  3.99635  0  0  -0.070402  -0.127678  0  3.967168  0
C  C58  1  0.38670589  0.77508700  0.56325525  1  0  -0.107408  0  3.725991  0  0  -0.128312  0  3.980741  0  0  -0.132631  0  3.998458  0  0  -0.070297  -0.125897  0  3.969157  0
C  C59  1  0.72550611  0.22483412  0.43671929  1  0  -0.109242  0  3.726925  0  0  -0.130816  0  3.98104  0  0  -0.135171  0  3.998819  0  0  -0.070912  -0.128456  0  3.969674  0
C  C60  1  0.43000929  0.76246903  0.22625406  1  0  -0.088786  0  3.808524  0  0  -0.105528  0  4.068641  0  0  -0.108615  0  4.091903  0  0  -0.109881  -0.10333  0  4.052731  0
C  C61  1  0.41834478  0.23748727  0.77384206  1  0  -0.090135  0  3.810097  0  0  -0.106796  0  4.069869  0  0  -0.109851  0  4.093201  0  0  -0.110295  -0.104795  0  4.054128  0
C  C62  1  0.40727936  0.26222279  0.27368621  1  0  -0.091266  0  3.811072  0  0  -0.108107  0  4.071112  0  0  -0.111207  0  4.094426  0  0  -0.110666  -0.105906  0  4.055181  0
C  C63  1  0.94195904  0.73780541  0.72626792  1  0  -0.090726  0  3.812086  0  0  -0.107367  0  4.071988  0  0  -0.11044  0  4.095333  0  0  -0.109669  -0.105368  0  4.056272  0
C  C64  1  0.53726680  0.63424068  0.20346877  1  0  -0.163534  0  3.764603  0  0  -0.180308  0  4.013909  0  0  -0.184445  0  4.03625  0  0  -0.108315  -0.177317  0  3.998609  0
C  C65  1  0.37466823  0.36577901  0.79651818  1  0  -0.161984  0  3.763665  0  0  -0.178505  0  4.012917  0  0  -0.182625  0  4.035118  0  0  -0.10874  -0.175621  0  3.997896  0
C  C66  1  0.49126928  0.13390799  0.29638619  1  0  -0.160877  0  3.76275  0  0  -0.177268  0  4.01209  0  0  -0.181394  0  4.034339  0  0  -0.108305  -0.174351  0  3.996915  0
C  C67  1  0.92110846  0.86605214  0.70351614  1  0  -0.161456  0  3.764426  0  0  -0.17796  0  4.013487  0  0  -0.182065  0  4.035721  0  0  -0.108695  -0.175086  0  3.998439  0
C  C68  1  0.54953357  0.59665463  0.11903978  1  0  0.14754  0  3.826039  0  0  0.147293  0  4.064525  0  0  0.150074  0  4.089992  0  0  0.07608  0.145401  0  4.047267  0
C  C69  1  0.26501253  0.40339994  0.88095310  1  0  0.14603  0  3.825137  0  0  0.146322  0  4.063046  0  0  0.149091  0  4.08849  0  0  0.0763  0.144336  0  4.045737  0
C  C70  1  0.41890210  0.09639837  0.38083008  1  0  0.145362  0  3.824623  0  0  0.144982  0  4.063321  0  0  0.147759  0  4.08879  0  0  0.075282  0.143094  0  4.046058  0
C  C71  1  0.89577101  0.90360141  0.61909648  1  0  0.146596  0  3.825384  0  0  0.146566  0  4.063545  0  0  0.149318  0  4.089021  0  0  0.075521  0.144604  0  4.046213  0
C  C72  1  0.61353576  0.49945072  0.99500315  1  0  0.346801  0  3.769176  0  0  0.318668  0  4.034472  0  0  0.335696  0  4.047789  0  0  0.211339  0.307617  0  4.024787  0
C  C73  1  0.10827049  0.50052476  0.00505924  1  0  0.34431  0  3.769474  0  0  0.31675  0  4.034106  0  0  0.333745  0  4.04743  0  0  0.210222  0.305695  0  4.024472  0
C  C74  1  0.35871906  0.99925357  0.50486928  1  0  0.346133  0  3.764631  0  0  0.316953  0  4.031612  0  0  0.333915  0  4.044983  0  0  0.210454  0.305922  0  4.021919  0
C  C75  1  0.86302185  0.00072115  0.49502388  1  0  0.346249  0  3.770115  0  0  0.317268  0  4.035402  0  0  0.334257  0  4.048742  0  0  0.210241  0.30622  0  4.025774  0
C  C76  1  0.90955550  0.34264113  0.78197044  1  0  0.0339  0  3.63579  0  0  -0.02135  0  3.890278  0  0  -0.013397  0  3.901613  0  0  0.045264  -0.02659  0  3.882921  0
C  C77  1  0.03369187  0.65737639  0.21818677  1  0  0.023837  0  3.626419  0  0  -0.019353  0  3.890046  0  0  -0.011332  0  3.901277  0  0  0.046233  -0.024301  0  3.882153  0
C  C78  1  0.44086392  0.84240256  0.71796046  1  0  0.02444  0  3.628596  0  0  -0.018978  0  3.891329  0  0  -0.010991  0  3.902623  0  0  0.045464  -0.024224  0  3.883982  0
C  C79  1  0.00142583  0.15760769  0.28188547  1  0  0.0231  0  3.626611  0  0  -0.020691  0  3.890468  0  0  -0.012691  0  3.901763  0  0  0.045435  -0.025655  0  3.882603  0
C  C80  1  0.79562748  0.18686602  0.86978018  1  0  0.054037  0  3.577418  0  0  0.00251  0  3.826436  0  0  0.00991  0  3.838502  0  0  0.053559  -0.002129  0  3.818057  0
C  C81  1  0.85282280  0.81316429  0.13016199  1  0  0.043211  0  3.569462  0  0  0.003363  0  3.826833  0  0  0.010723  0  3.838981  0  0  0.053789  -0.001726  0  3.819269  0
C  C82  1  0.41551265  0.68658714  0.62995631  1  0  0.042115  0  3.571274  0  0  0.002701  0  3.828822  0  0  0.010195  0  3.84091  0  0  0.054196  -0.002049  0  3.820535  0
C  C83  1  0.73253247  0.31335493  0.37003064  1  0  0.041508  0  3.569408  0  0  0.001582  0  3.8274  0  0  0.008979  0  3.839633  0  0  0.054122  -0.003525  0  3.819756  0
N  N84  1  0.50077110  0.62212658  0.98065471  1  0  -0.500221  0  3.18188  0  0  -0.426202  0  3.467647  0  0  -0.448532  0  3.477709  0  0  -0.368522  -0.411194  0  3.460498  0
N  N85  1  0.10336367  0.37790662  0.01939117  1  0  -0.49897  0  3.181781  0  0  -0.425175  0  3.467219  0  0  -0.447472  0  3.477301  0  0  -0.367333  -0.409995  0  3.459975  0
N  N86  1  0.23170207  0.12196618  0.51923595  1  0  -0.499563  0  3.179964  0  0  -0.425284  0  3.465757  0  0  -0.447609  0  3.475875  0  0  -0.368437  -0.410271  0  3.458539  0
N  N87  1  0.87241896  0.87810203  0.48071505  1  0  -0.499895  0  3.18349  0  0  -0.425953  0  3.469349  0  0  -0.448238  0  3.479384  0  0  -0.368526  -0.410776  0  3.462098  0
N  N88  1  0.64626636  0.47835741  0.07684517  1  0  -0.49573  0  3.182029  0  0  -0.421523  0  3.469489  0  0  -0.444137  0  3.480516  0  0  -0.366035  -0.405974  0  3.461478  0
N  N89  1  0.20166684  0.52164227  0.92319012  1  0  -0.492902  0  3.181916  0  0  -0.418839  0  3.469228  0  0  -0.441523  0  3.48036  0  0  -0.365585  -0.403707  0  3.460717  0
N  N90  1  0.47324790  0.97809961  0.42300326  1  0  -0.492915  0  3.179268  0  0  -0.418737  0  3.467588  0  0  -0.441323  0  3.478626  0  0  -0.365517  -0.403231  0  3.459609  0
N  N91  1  0.87464865  0.02184425  0.57687144  1  0  -0.493428  0  3.181542  0  0  -0.419271  0  3.46958  0  0  -0.441917  0  3.48065  0  0  -0.364115  -0.404161  0  3.461059  0
N  N92  1  0.89884974  0.22119980  0.79373111  1  0  0.230283  0  3.745358  0  0  0.320748  0  3.946999  0  0  0.319737  0  3.969095  0  0  -0.111405  0.320821  0  3.931989  0
N  N93  1  0.91383375  0.77887229  0.20628550  1  0  0.267605  0  3.691884  0  0  0.319638  0  3.94949  0  0  0.318638  0  3.971574  0  0  -0.111434  0.31983  0  3.934453  0
N  N94  1  0.44219427  0.72092514  0.70610671  1  0  0.265992  0  3.694485  0  0  0.317897  0  3.952147  0  0  0.316922  0  3.974226  0  0  -0.111641  0.317959  0  3.937139  0
N  N95  1  0.86951914  0.27905374  0.29382320  1  0  0.26677  0  3.691793  0  0  0.318733  0  3.949777  0  0  0.317747  0  3.971855  0  0  -0.112044  0.318916  0  3.934734  0
Cl  Cl96  1  0.11913139  0.87089414  0.89728605  1  0  -0.560199  0  0.955599  0  0  -0.496175  0  1.234752  0  0  -0.513247  0  1.211272  0  0  -0.288835  -0.483896  0  1.249433  0
Cl  Cl97  1  0.88688398  0.12907742  0.10266246  1  0  -0.560381  0  0.955746  0  0  -0.496292  0  1.234242  0  0  -0.513258  0  1.210705  0  0  -0.288897  -0.483803  0  1.25005  0
Cl  Cl98  1  0.76702637  0.37109268  0.60277054  1  0  -0.560049  0  0.955849  0  0  -0.496246  0  1.235438  0  0  -0.513243  0  1.211875  0  0  -0.289162  -0.484004  0  1.250107  0
Cl  Cl99  1  0.74018032  0.62891708  0.39730998  1  0  -0.560551  0  0.956224  0  0  -0.496223  0  1.234614  0  0  -0.513273  0  1.211168  0  0  -0.288735  -0.483667  0  1.250337  0
O  O100  1  0.99432359  0.13224638  0.73203152  1  0  -0.521015  0  1.890287  0  0  -0.474009  0  2.145471  0  0  -0.498865  0  2.141061  0  0  -0.236167  -0.456333  0  2.147771  0
O  O101  1  0.85857980  0.86785529  0.26798367  1  0  -0.534251  0  1.87671  0  0  -0.474326  0  2.1472  0  0  -0.499157  0  2.142821  0  0  -0.23639  -0.456445  0  2.149485  0
O  O102  1  0.47568612  0.63198861  0.76782390  1  0  -0.533062  0  1.875741  0  0  -0.473478  0  2.146676  0  0  -0.498385  0  2.142248  0  0  -0.236804  -0.455794  0  2.149  0
O  O103  1  0.87567073  0.36800138  0.23209507  1  0  -0.53271  0  1.875354  0  0  -0.473078  0  2.146147  0  0  -0.497876  0  2.141649  0  0  -0.236212  -0.455241  0  2.148594  0
