# generated using pymatgen
data_Zn4H18C32S7(N2O17)2
_symmetry_space_group_name_H-M   'P 1'
_cell_length_a   10.77772763
_cell_length_b   19.10875272
_cell_length_c   19.10662818
_cell_angle_alpha   93.96260149
_cell_angle_beta   95.85138347
_cell_angle_gamma   92.24113244
_symmetry_Int_Tables_number   1
_chemical_formula_structural   Zn4H18C32S7(N2O17)2
_chemical_formula_sum   'Zn4 H18 C32 S7 N4 O34'
_cell_volume   3900.90421896
_cell_formula_units_Z   1
loop_
 _symmetry_equiv_pos_site_id
 _symmetry_equiv_pos_as_xyz
  1  'x, y, z'
loop_
 _atom_site_type_symbol
 _atom_site_label
 _atom_site_symmetry_multiplicity
 _atom_site_fract_x
 _atom_site_fract_y
 _atom_site_fract_z
 _atom_site_occupancy
 _atom_site_pbe_bader_charge
 _atom_site_pbe_bader_spin_density
 _atom_site_pbe_cm5_charge
 _atom_site_pbe_ddec_charge
 _atom_site_pbe_ddec_spin_density
 _atom_site_pbe_ddec_sum_bond_order
 _atom_site_pbe_magmom
Zn  Zn0  1  0.60978285  0.57449078  0.57244288  1  1.318261  0  0.679649  0.974558  0  2.329572  0
Zn  Zn1  1  0.39361549  0.55602545  0.43924593  1  1.323404  0  0.687853  0.991432  0  2.314288  0
Zn  Zn2  1  0.41189117  0.44334129  0.55732548  1  1.317699  0  0.678899  0.963579  0  2.393655  0
Zn  Zn3  1  0.61308803  0.45021351  0.45039289  1  1.308511  0  0.67864  0.957194  0  2.382531  0
H  H4  1  0.99436121  0.42845140  0.47921957  1  0.138356  0  0.125251  0.145867  0  0.962274  0
H  H5  1  0.26258877  0.09229423  0.62758650  1  0.629113  0  0.363856  0.414241  0  0.817735  0
H  H6  1  0.11925753  0.82844506  0.39443447  1  0.655246  0  0.358155  0.423503  0  0.815089  0
H  H7  1  0.45273074  0.23342175  0.59096017  1  0.16323  0  0.121999  0.137752  0  0.990113  0
H  H8  1  0.46892952  0.57558500  0.09916722  1  0.141351  0  0.126892  0.139938  0  0.973454  0
H  H9  1  0.77157549  0.69418428  0.89505710  1  0.624816  0  0.358022  0.407989  0  0.829878  0
H  H10  1  0.61149810  0.61420360  0.79295806  1  0.135939  0  0.115805  0.13122  0  0.999383  0
H  H11  1  0.46819344  0.34651542  0.35621268  1  0.670921  0  0.313603  0.378411  0  0.949148  0
H  H12  1  0.43025694  0.40699069  0.89901144  1  0.143921  0  0.12463  0.133857  0  0.984519  0
H  H13  1  0.66244919  0.27530227  0.13219105  1  0.660934  0  0.361632  0.414144  0  0.814419  0
H  H14  1  0.46197766  0.58122189  0.23083766  1  0.113472  0  0.122212  0.128263  0  0.961494  0
H  H15  1  0.01422921  0.58697373  0.52735366  1  0.151156  0  0.118651  0.145355  0  0.975387  0
H  H16  1  0.42280094  0.40989050  0.76708044  1  0.113793  0  0.118357  0.124605  0  0.976818  0
H  H17  1  0.66758319  0.78940222  0.52988693  1  0.134102  0  0.12433  0.12952  0  0.959575  0
H  H18  1  0.65453031  0.92031264  0.52191717  1  0.133023  0  0.130982  0.138531  0  0.965405  0
H  H19  1  0.61241878  0.14957673  0.28025113  1  0.645498  0  0.357586  0.417965  0  0.814655  0
H  H20  1  0.60726816  0.23127031  0.39176778  1  0.171862  0  0.117037  0.131767  0  1.01271  0
H  H21  1  0.08273247  0.81322067  0.51299602  1  0.65793  0  0.330138  0.395024  0  0.900472  0
C  C22  1  0.49124746  0.48342515  0.31591868  1  1.605412  0  0.225924  0.606339  0  4.206147  0
C  C23  1  0.48032675  0.47031059  0.23725062  1  0.013677  0  0.000713  -0.018441  0  3.919179  0
C  C24  1  0.48820927  0.40412452  0.20053554  1  -0.106905  0  0.00058  -0.094554  0  3.85277  0
C  C25  1  0.51541482  0.51201092  0.69464178  1  1.578591  0  0.233089  0.607025  0  4.160378  0
C  C26  1  0.49644034  0.40139910  0.12725378  1  -0.123976  0  0.006132  -0.143028  0  3.831248  0
C  C27  1  0.52213960  0.23953702  0.48962450  1  -0.011018  0  -0.009155  -0.026824  0  3.95756  0
C  C28  1  0.48421517  0.20382348  0.54585792  1  0.017166  0  -0.058428  -0.065349  0  3.927159  0
C  C29  1  0.48957166  0.13125394  0.54545202  1  -0.096513  0  -0.003049  -0.150038  0  3.88802  0
C  C30  1  0.53294336  0.09299114  0.48736870  1  0.345673  0  0.127974  0.186273  0  3.974846  0
C  C31  1  0.57936378  0.13044040  0.43353026  1  -0.09768  0  0.002324  -0.131371  0  3.872653  0
C  C32  1  0.57261709  0.20292710  0.43389485  1  0.01895  0  -0.061687  -0.073522  0  3.916666  0
C  C33  1  0.46495876  0.45365054  0.80218511  1  0.003133  0  -0.0647  -0.064998  0  3.937315  0
C  C34  1  0.57173862  0.88490821  0.51372363  1  0.080075  0  -0.048021  -0.088026  0  3.88496  0
C  C35  1  0.57810095  0.81323542  0.51883617  1  0.013019  0  -0.058466  -0.063157  0  3.924244  0
C  C36  1  0.45572116  0.91353725  0.49766147  1  0.342918  0  0.109673  0.172925  0  3.985152  0
C  C37  1  0.48752011  0.69203390  0.50850655  1  1.633106  0  0.230853  0.607141  0  4.200447  0
C  C38  1  0.46925996  0.76979702  0.51013378  1  0.019217  0  0.010064  0.001833  0  3.895326  0
C  C39  1  0.35083648  0.79861314  0.49858604  1  -0.146423  0  -0.002448  -0.114041  0  3.887824  0
C  C40  1  0.34406502  0.87077677  0.48937069  1  -0.117766  0  0.005675  -0.146229  0  3.845166  0
C  C41  1  0.51320710  0.31702976  0.49220043  1  1.528858  0  0.236664  0.608767  0  4.135702  0
C  C42  1  0.17594715  0.48702150  0.48928396  1  1.570838  0  0.235292  0.655725  0  4.151078  0
C  C43  1  0.83703598  0.52376418  0.51822844  1  1.532887  0  0.226345  0.65097  0  4.1557  0
C  C44  1  0.46818718  0.45198803  0.87473786  1  -0.035071  0  -0.061252  -0.115208  0  3.901622  0
C  C45  1  0.97209158  0.53459844  0.51216688  1  -0.014367  0  -0.079021  -0.192658  0  3.879534  0
C  C46  1  0.03878681  0.48084488  0.49102082  1  -0.03157  0  -0.059425  -0.137263  0  3.855554  0
C  C47  1  0.51763052  0.51183832  0.77286241  1  -0.012668  0  -0.004559  -0.0184  0  3.941625  0
C  C48  1  0.52179521  0.50942665  0.91882098  1  0.449757  0  0.108176  0.17354  0  3.994161  0
C  C49  1  0.57298196  0.56825895  0.88914692  1  -0.129523  0  0.000848  -0.131699  0  3.898712  0
C  C50  1  0.57209784  0.56926549  0.81640742  1  -0.034269  0  -0.07115  -0.096145  0  3.943332  0
C  C51  1  0.47589104  0.52882726  0.12870188  1  0.076063  0  -0.056732  -0.108562  0  3.908374  0
C  C52  1  0.47160140  0.53144816  0.20083191  1  0.014981  0  -0.065244  -0.065903  0  3.942914  0
C  C53  1  0.48987590  0.46413349  0.09204257  1  0.339306  0  0.108659  0.171649  0  4.012929  0
S  S54  1  0.64691279  0.08108441  0.36448893  1  3.105291  0  0.541665  1.14885  0  6.042914  0
S  S55  1  0.21820390  0.73770645  0.50189566  1  3.10252  0  0.540506  1.1496  0  6.013766  0
S  S56  1  0.46042658  0.09413245  0.62670824  1  3.074741  0  0.543828  1.153939  0  6.025665  0
S  S57  1  0.20766505  0.91925433  0.46100577  1  3.056565  0  0.549181  1.134446  0  5.993332  0
S  S58  1  0.63678530  0.64074645  0.94827874  1  3.057266  0  0.540528  1.156173  0  6.016702  0
S  S59  1  0.46645149  0.32343841  0.24432248  1  3.101791  0  0.536961  1.152293  0  5.994862  0
S  S60  1  0.52561015  0.32612429  0.06820705  1  3.106357  0  0.544446  1.145641  0  6.033928  0
N  N61  1  0.52977343  0.51298154  0.99305581  1  -0.485997  0  -0.122331  -0.094549  0  3.258711  0
N  N62  1  0.48729590  0.45857963  0.01799603  1  -0.458964  0  -0.122817  -0.088337  0  3.278205  0
N  N63  1  0.53968718  0.01977606  0.48079604  1  -0.395308  0  -0.112683  -0.082396  0  3.272491  0
N  N64  1  0.44384629  0.98659126  0.49581134  1  -0.419317  0  -0.110741  -0.065479  0  3.275998  0
O  O65  1  0.50701415  0.50768363  0.50545729  1  -1.23304  0  -0.574717  -1.037616  0  2.540905  0
O  O66  1  0.22057612  0.53744154  0.45826015  1  -1.158322  0  -0.298576  -0.522344  0  2.311301  0
O  O67  1  0.78414637  0.46522221  0.49170243  1  -1.178152  0  -0.323491  -0.560676  0  2.321682  0
O  O68  1  0.23580749  0.43943103  0.52036356  1  -1.16351  0  -0.317342  -0.551362  0  2.289162  0
O  O69  1  0.78400416  0.57385751  0.54946930  1  -1.16122  0  -0.311742  -0.542538  0  2.272392  0
O  O70  1  0.76368897  0.05705177  0.39392502  1  -1.269675  0  -0.302885  -0.498361  0  2.093191  0
O  O71  1  0.55137113  0.03465747  0.32623635  1  -1.272919  0  -0.308948  -0.51928  0  2.09744  0
O  O72  1  0.68297349  0.14214929  0.31524455  1  -1.193154  0  -0.351189  -0.521626  0  2.150618  0
O  O73  1  0.16134723  0.71997662  0.43088230  1  -1.284784  0  -0.314979  -0.538758  0  2.117676  0
O  O74  1  0.25865080  0.68440175  0.54716675  1  -1.279502  0  -0.291365  -0.49379  0  2.157014  0
O  O75  1  0.12634112  0.78175370  0.54573533  1  -1.215134  0  -0.355068  -0.515131  0  2.161169  0
O  O76  1  0.55518591  0.67077513  0.56027567  1  -1.157014  0  -0.301613  -0.521549  0  2.315225  0
O  O77  1  0.54241918  0.03777683  0.63744899  1  -1.274092  0  -0.30252  -0.499952  0  2.116178  0
O  O78  1  0.45767229  0.15234036  0.67852349  1  -1.276236  0  -0.314137  -0.533045  0  2.106234  0
O  O79  1  0.32205598  0.05881177  0.61150749  1  -1.168231  0  -0.345549  -0.521975  0  2.219621  0
O  O80  1  0.16017113  0.95423156  0.52045559  1  -1.25546  0  -0.287223  -0.470824  0  2.137827  0
O  O81  1  0.23701692  0.95301458  0.39969696  1  -1.246052  0  -0.282753  -0.477675  0  2.116011  0
O  O82  1  0.09882375  0.85873607  0.43503797  1  -1.20159  0  -0.352869  -0.551231  0  2.221728  0
O  O83  1  0.53643060  0.67266592  0.98037160  1  -1.271876  0  -0.306084  -0.507063  0  2.097957  0
O  O84  1  0.74823274  0.62080832  0.98874218  1  -1.277673  0  -0.320195  -0.543621  0  2.097864  0
O  O85  1  0.68044792  0.69496492  0.89272669  1  -1.169047  0  -0.361753  -0.532109  0  2.121273  0
O  O86  1  0.36963917  0.28296013  0.20085193  1  -1.26641  0  -0.296916  -0.486582  0  2.116797  0
O  O87  1  0.54975743  0.34937029  0.44022934  1  -1.185197  0  -0.308174  -0.559982  0  2.363925  0
O  O88  1  0.58478635  0.29441253  0.26657871  1  -1.295968  0  -0.325656  -0.555315  0  2.139057  0
O  O89  1  0.40676281  0.35031962  0.31370571  1  -1.240481  0  -0.358796  -0.528567  0  2.21954  0
O  O90  1  0.41017040  0.29895905  0.03115730  1  -1.259687  0  -0.291104  -0.478179  0  2.103803  0
O  O91  1  0.63157816  0.34731816  0.03299747  1  -1.272349  0  -0.311231  -0.528211  0  2.114241  0
O  O92  1  0.57226096  0.26743979  0.11958499  1  -1.207775  0  -0.344149  -0.513421  0  2.226387  0
O  O93  1  0.40778989  0.51954665  0.34144279  1  -1.159484  0  -0.303053  -0.531569  0  2.321619  0
O  O94  1  0.43955575  0.46705157  0.65853986  1  -1.175944  0  -0.311244  -0.541735  0  2.349161  0
O  O95  1  0.58987011  0.46214694  0.34902925  1  -1.165185  0  -0.315662  -0.544219  0  2.335876  0
O  O96  1  0.58906894  0.55619074  0.67056995  1  -1.164401  0  -0.308273  -0.537286  0  2.317887  0
O  O97  1  0.44117064  0.65684411  0.45219767  1  -1.165274  0  -0.312496  -0.547759  0  2.335301  0
O  O98  1  0.47125258  0.34665387  0.54576912  1  -1.158519  0  -0.296616  -0.518317  0  2.327654  0
