# generated using pymatgen
data_NiMo2H12C15N3O7
_symmetry_space_group_name_H-M   'P 1'
_cell_length_a   7.22182075
_cell_length_b   10.91787801
_cell_length_c   11.22651764
_cell_angle_alpha   98.65175490
_cell_angle_beta   87.77280877
_cell_angle_gamma   106.61797351
_symmetry_Int_Tables_number   1
_chemical_formula_structural   NiMo2H12C15N3O7
_chemical_formula_sum   'Ni2 Mo4 H24 C30 N6 O14'
_cell_volume   838.54561076
_cell_formula_units_Z   2
loop_
 _symmetry_equiv_pos_site_id
 _symmetry_equiv_pos_as_xyz
  1  'x, y, z'
loop_
 _atom_site_type_symbol
 _atom_site_label
 _atom_site_symmetry_multiplicity
 _atom_site_fract_x
 _atom_site_fract_y
 _atom_site_fract_z
 _atom_site_occupancy
 _atom_site_hle17_ddec_charge
 _atom_site_hle17_ddec_spin_density
 _atom_site_hle17_ddec_sum_bond_order
 _atom_site_hle17_magmom
 _atom_site_hse06_10hf_ddec_charge
 _atom_site_hse06_10hf_ddec_spin_density
 _atom_site_hse06_10hf_ddec_sum_bond_order
 _atom_site_hse06_10hf_magmom
 _atom_site_hse06_ddec_charge
 _atom_site_hse06_ddec_spin_density
 _atom_site_hse06_ddec_sum_bond_order
 _atom_site_hse06_magmom
 _atom_site_pbe_cm5_charge
 _atom_site_pbe_ddec_charge
 _atom_site_pbe_ddec_spin_density
 _atom_site_pbe_ddec_sum_bond_order
 _atom_site_pbe_magmom
Ni  Ni0  1  0.49999871  0.00000009  0.50000027  1  0.997855  1.872311  2.019437  1.514  1.029437  1.900358  2.397483  1.622  1.107378  1.96921  2.327279  1.712  0.658512  0.967014  1.826152  2.458177  1.532
Ni  Ni1  1  0.49999844  0.00000253  0.99999962  1  0.94369  -0.064145  2.117113  0.01  0.979248  -0.079812  2.512533  0.002  1.072843  -0.095847  2.425372  -0.003  0.639539  0.917062  -0.049885  2.573382  0.018
Mo  Mo2  1  0.25378325  0.09007270  0.27420660  1  2.113986  -0.029925  4.164355  -0.028  2.11299  -0.010171  4.739082  -0.01  2.221971  -0.008372  4.699381  -0.009  1.529407  2.033798  -0.0134  4.769444  -0.013
Mo  Mo3  1  0.74621150  0.90992238  0.72579196  1  2.113981  -0.029927  4.164304  -0.028  2.112978  -0.010172  4.739046  -0.01  2.221954  -0.008375  4.699355  -0.009  1.529395  2.033791  -0.0134  4.769408  -0.013
Mo  Mo4  1  0.76848890  0.89305254  0.22411077  1  2.129063  0.002613  4.184421  0.009  2.1214  0.011085  4.78308  0.019  2.230346  0.008554  4.736185  0.015  1.493234  2.046541  0.013703  4.814194  0.023
Mo  Mo5  1  0.23150429  0.10694544  0.77588911  1  2.128961  0.002612  4.184685  0.009  2.121302  0.011085  4.783354  0.019  2.230258  0.008552  4.736451  0.015  1.493145  2.046449  0.013703  4.814467  0.023
H  H6  1  0.71121351  0.17256469  0.26985984  1  0.095298  -0.000108  0.948895  0.0  0.099967  -6.8e-05  1.018404  0.0  0.102862  -6.9e-05  1.015357  0.0  0.121356  0.097339  -6.3e-05  1.02144  0.0
H  H7  1  0.28878564  0.82743424  0.73014011  1  0.095324  -0.000108  0.948878  0.0  0.09999  -6.8e-05  1.018383  0.0  0.102857  -6.9e-05  1.01537  0.0  0.121371  0.09736  -6.3e-05  1.021422  0.0
H  H8  1  0.99072952  0.36319736  0.31462494  1  0.115719  7.8e-05  0.977845  0.0  0.126077  2.4e-05  1.039931  0.0  0.12999  1.9e-05  1.037425  0.0  0.104163  0.123251  1.8e-05  1.041883  0.0
H  H9  1  0.00926669  0.63680158  0.68538038  1  0.115678  7.9e-05  0.977915  0.0  0.126069  2.4e-05  1.039966  0.0  0.129982  1.9e-05  1.037463  0.0  0.104134  0.123251  1.8e-05  1.041903  0.0
H  H10  1  0.58995086  0.59558805  0.37012936  1  0.109925  5.4e-05  0.979304  0.0  0.120677  3.1e-05  1.03964  0.0  0.123744  2.5e-05  1.038223  0.0  0.107237  0.118328  3.6e-05  1.04102  0.0
H  H11  1  0.41004976  0.40440412  0.62986248  1  0.109917  5.4e-05  0.979236  0.0  0.120624  3.1e-05  1.039628  0.0  0.12369  2.5e-05  1.038213  0.0  0.107257  0.118282  3.6e-05  1.041014  0.0
H  H12  1  0.32452531  0.38969956  0.32226924  1  0.079295  1.1e-05  0.973389  0.0  0.08842  2.8e-05  1.03878  0.0  0.091581  2.3e-05  1.035358  0.0  0.112742  0.086041  1.6e-05  1.041422  0.0
H  H13  1  0.67547326  0.61029745  0.67772242  1  0.079293  1e-05  0.973345  0.0  0.088428  2.9e-05  1.038723  0.0  0.091588  2.3e-05  1.035302  0.0  0.112769  0.086042  1.6e-05  1.041372  0.0
H  H14  1  0.46331157  0.74046775  0.35727267  1  0.076586  0.000592  1.003841  0.002  0.081013  0.000425  1.075772  0.001  0.083355  0.000269  1.072651  0.001  0.111616  0.07938  0.000577  1.078013  0.001
H  H15  1  0.53668334  0.25953410  0.64272595  1  0.076582  0.000593  1.003651  0.002  0.081011  0.000425  1.075601  0.001  0.083356  0.00027  1.072475  0.001  0.11164  0.079375  0.000577  1.077849  0.001
H  H16  1  0.19965363  0.54372439  0.28515106  1  0.105009  0.000285  0.955369  0.0  0.118624  0.000325  1.010868  0.0  0.121432  0.000233  1.010346  0.0  0.108929  0.116613  0.000406  1.011477  0.0
H  H17  1  0.80033945  0.45627649  0.71484833  1  0.105048  0.000285  0.955385  0.0  0.118671  0.000325  1.010857  0.0  0.121481  0.000233  1.010331  0.0  0.108979  0.116658  0.000406  1.011471  0.0
H  H18  1  0.80175595  0.73032302  0.48175891  1  0.107345  0.000425  0.975727  0.0  0.113294  0.000438  1.046505  0.0  0.116689  0.000315  1.045074  0.0  0.106922  0.110904  0.000562  1.047512  0.0
H  H19  1  0.19823226  0.26967304  0.51824076  1  0.107408  0.000425  0.975625  0.0  0.113249  0.000439  1.046534  0.0  0.116626  0.000315  1.04514  0.0  0.106854  0.110859  0.000562  1.047543  0.0
H  H20  1  0.08046350  0.92014241  0.53750828  1  0.077261  0.000747  0.969127  0.002  0.079911  0.000531  1.042369  0.001  0.081889  0.00037  1.039815  0.001  0.116827  0.078399  0.000683  1.044395  0.001
H  H21  1  0.91952142  0.07985559  0.46249081  1  0.077327  0.000747  0.969029  0.002  0.07991  0.000531  1.042373  0.001  0.08189  0.000369  1.039818  0.001  0.116819  0.078397  0.000682  1.044398  0.001
H  H22  1  0.54522988  0.73225086  0.97566934  1  0.089868  0.000508  0.942088  0.001  0.095531  0.000476  1.009829  0.001  0.096996  0.000392  1.007703  0.001  0.121893  0.094598  0.00052  1.011494  0.001
H  H23  1  0.45478182  0.26776159  0.02433771  1  0.089897  0.000508  0.942037  0.001  0.095573  0.000476  1.009763  0.001  0.09704  0.000392  1.007636  0.001  0.121895  0.094638  0.00052  1.011429  0.001
H  H24  1  0.33458293  0.50897633  0.97384532  1  0.111178  0.000229  0.951013  0.0  0.124261  0.00022  1.00588  0.0  0.126782  0.00017  1.005438  0.0  0.110094  0.12258  0.000255  1.006185  0.0
H  H25  1  0.66543881  0.49103415  0.02616757  1  0.111168  0.00023  0.951039  0.0  0.124183  0.00022  1.005984  0.0  0.126704  0.00017  1.005545  0.0  0.110067  0.122501  0.000255  1.006288  0.0
H  H26  1  0.84813878  0.66959117  0.01678342  1  0.108256  0.000222  0.971042  0.0  0.116705  0.000203  1.034895  0.0  0.119382  0.000151  1.033998  0.0  0.107743  0.114855  0.000243  1.035663  0.0
H  H27  1  0.15187767  0.33040870  0.98320754  1  0.108387  0.000223  0.97088  0.0  0.116747  0.000203  1.034854  0.0  0.119424  0.000151  1.033957  0.0  0.107786  0.1149  0.000243  1.035616  0.0
H  H28  1  0.07834713  0.88274084  0.00721619  1  0.098923  0.000537  0.9477  0.001  0.1028  0.000493  1.015477  0.001  0.104266  0.000403  1.013217  0.001  0.122173  0.102041  0.00054  1.01686  0.001
H  H29  1  0.92165581  0.11726003  0.99277775  1  0.09893  0.000536  0.947707  0.001  0.102824  0.000493  1.01544  0.001  0.104285  0.000403  1.013189  0.001  0.122191  0.102067  0.00054  1.016818  0.001
C  C30  1  0.69149346  0.26852921  0.29190248  1  0.155475  0.000694  3.674389  0.001  0.125335  6.5e-05  3.929688  0.0  0.134565  0.000137  3.946038  0.0  0.050655  0.118981  2.2e-05  3.919422  0.0
C  C31  1  0.30850483  0.73146779  0.70809809  1  0.155516  0.000704  3.674376  0.001  0.125398  6.5e-05  3.929655  0.0  0.134651  0.000137  3.94601  0.0  0.05069  0.119044  2.2e-05  3.919391  0.0
C  C32  1  0.84750788  0.37740147  0.31750079  1  -0.152679  -0.002843  3.68244  -0.002  -0.171499  -0.000741  3.928202  -0.001  -0.178629  -0.00079  3.948165  -0.001  -0.081014  -0.167014  -0.000917  3.91513  -0.001
C  C33  1  0.15248835  0.62259457  0.68250768  1  -0.152737  -0.002858  3.682641  -0.002  -0.171624  -0.000743  3.928374  -0.001  -0.178756  -0.00079  3.94833  -0.001  -0.081029  -0.167134  -0.000917  3.915299  -0.001
C  C34  1  0.81553273  0.49886009  0.34850508  1  0.096907  0.001508  3.756908  0.002  0.107983  0.000246  3.985754  0.001  0.111873  0.000351  4.006192  0.001  0.012827  0.105546  0.00016  3.971896  0.001
C  C35  1  0.18446273  0.50113692  0.65149731  1  0.097006  0.001516  3.756932  0.002  0.108171  0.000247  3.985651  0.001  0.112063  0.00035  4.006084  0.001  0.012893  0.105731  0.00016  3.971801  0.001
C  C36  1  0.62369063  0.50405563  0.35052927  1  -0.139235  -0.002802  3.705753  -0.002  -0.156692  -0.000798  3.9487  -0.001  -0.163079  -0.000818  3.968202  -0.001  -0.080473  -0.152639  -0.000887  3.935845  -0.001
C  C37  1  0.37630017  0.49593656  0.64946715  1  -0.139326  -0.002816  3.70562  -0.002  -0.156766  -0.000799  3.948577  -0.001  -0.163148  -0.000816  3.96807  -0.001  -0.080542  -0.152731  -0.000888  3.935748  -0.001
C  C38  1  0.47593230  0.39121511  0.32286692  1  0.119486  0.000877  3.732013  0.001  0.092293  0.000143  3.981481  0.0  0.099962  0.000224  3.998928  0.0  0.039703  0.087302  0.000109  3.969718  0.0
C  C39  1  0.52405985  0.60877998  0.67712633  1  0.119534  0.000886  3.731978  0.001  0.092345  0.000143  3.981434  0.0  0.100013  0.000222  3.998882  0.0  0.039743  0.087362  0.000109  3.969671  0.0
C  C40  1  0.31457706  0.73260375  0.38401554  1  0.136731  -0.01232  3.682664  -0.01  0.109034  -0.003039  3.936766  -0.003  0.118495  -0.003703  3.953213  -0.003  0.046651  0.102351  -0.00266  3.925445  -0.002
C  C41  1  0.68542613  0.26739518  0.61598792  1  0.13679  -0.012319  3.682495  -0.01  0.109063  -0.00304  3.936602  -0.003  0.118522  -0.003702  3.95305  -0.003  0.046622  0.102381  -0.00266  3.925282  -0.002
C  C42  1  0.16624493  0.62264757  0.34503000  1  -0.153077  0.009195  3.690765  0.011  -0.17034  0.002946  3.932235  0.004  -0.178138  0.00285  3.952618  0.004  -0.081513  -0.165328  0.003174  3.918976  0.004
C  C43  1  0.83375546  0.37735136  0.65497438  1  -0.15318  0.009194  3.690854  0.011  -0.170445  0.002946  3.932331  0.004  -0.178244  0.002849  3.952713  0.004  -0.081578  -0.165427  0.003175  3.919071  0.004
C  C44  1  0.97593397  0.61627948  0.38096613  1  0.098901  -0.012611  3.760621  -0.01  0.111563  -0.004238  3.987562  -0.003  0.116717  -0.004042  4.007626  -0.003  0.012803  0.107992  -0.004854  3.974158  -0.004
C  C45  1  0.02406524  0.38371655  0.61903607  1  0.098872  -0.01261  3.7608  -0.01  0.111522  -0.004236  3.987697  -0.003  0.116678  -0.004042  4.00776  -0.003  0.012786  0.107952  -0.004856  3.974294  -0.004
C  C46  1  0.94486747  0.72583316  0.45129855  1  -0.149709  0.009342  3.692378  0.011  -0.171747  0.003075  3.943703  0.004  -0.179793  0.002942  3.962629  0.004  -0.078427  -0.166638  0.003306  3.931473  0.004
C  C47  1  0.05512248  0.27416677  0.54869897  1  -0.14965  0.009337  3.692705  0.011  -0.171621  0.003073  3.944072  0.004  -0.179667  0.002941  3.962992  0.004  -0.078327  -0.16651  0.003305  3.931842  0.004
C  C48  1  0.10029702  0.83312972  0.48431135  1  0.153297  -0.013253  3.68774  -0.011  0.127271  -0.003525  3.9423  -0.003  0.137584  -0.004041  3.95799  -0.004  0.05242  0.119884  -0.003346  3.931652  -0.003
C  C49  1  0.89969695  0.16687310  0.51568652  1  0.153092  -0.013248  3.687877  -0.011  0.127077  -0.003525  3.942425  -0.003  0.137388  -0.00404  3.958111  -0.004  0.052291  0.119692  -0.003346  3.931773  -0.003
C  C50  1  0.38924214  0.71298254  0.98413344  1  0.133048  -0.003762  3.682618  -0.003  0.10025  -0.00035  3.948124  0.0  0.109449  -0.000976  3.968608  -0.001  0.051876  0.093772  8.8e-05  3.93413  0.0
C  C51  1  0.61077061  0.28702894  0.01587078  1  0.132971  -0.003741  3.682391  -0.003  0.100128  -0.000351  3.947905  0.0  0.109326  -0.000976  3.968386  -0.001  0.05182  0.09365  8.8e-05  3.933912  0.0
C  C52  1  0.26874020  0.58810944  0.98487896  1  -0.149814  0.003554  3.674179  0.004  -0.169103  0.00156  3.922267  0.002  -0.17725  0.001465  3.943834  0.002  -0.078888  -0.163285  0.001626  3.907286  0.002
C  C53  1  0.73127638  0.41190202  0.01513502  1  -0.14984  0.003536  3.673893  0.004  -0.169062  0.00156  3.922039  0.002  -0.177212  0.001465  3.943604  0.002  -0.078822  -0.163243  0.001626  3.907058  0.002
C  C54  1  0.06733884  0.56577389  0.99787593  1  0.093807  -0.00369  3.723902  -0.003  0.105398  -0.001105  3.95577  -0.001  0.109601  -0.001338  3.977946  -0.001  0.014246  0.102471  -0.000926  3.940634  -0.001
C  C55  1  0.93268108  0.43423177  0.00212828  1  0.093998  -0.003668  3.72359  -0.003  0.105538  -0.001105  3.955494  -0.001  0.109739  -0.001338  3.977671  -0.001  0.014222  0.102609  -0.000926  3.940359  -0.001
C  C56  1  0.00073277  0.67579075  0.00609688  1  -0.145797  0.003446  3.672311  0.004  -0.166714  0.001459  3.921123  0.002  -0.175057  0.001368  3.942289  0.002  -0.076851  -0.16111  0.001557  3.906897  0.002
C  C57  1  0.99928221  0.32420912  0.99389677  1  -0.146022  0.003428  3.672194  0.004  -0.166895  0.001459  3.92113  0.002  -0.175239  0.001369  3.942297  0.002  -0.076975  -0.161293  0.001556  3.906909  0.002
C  C58  1  0.12936765  0.79760018  0.00323563  1  0.148141  -0.003996  3.643426  -0.003  0.120367  -0.00048  3.899415  -0.001  0.130214  -0.001138  3.918298  -0.001  0.05763  0.113294  1.4e-05  3.886599  0.0
C  C59  1  0.87064270  0.20240550  0.99676514  1  0.14812  -0.003973  3.643378  -0.003  0.120334  -0.000481  3.899324  -0.001  0.130179  -0.001139  3.918206  -0.001  0.05765  0.113259  1.4e-05  3.886513  0.0
N  N60  1  0.50849528  0.27523536  0.29451966  1  -0.355701  -0.002572  3.353408  -0.002  -0.29827  -0.000931  3.612975  -0.001  -0.319928  -0.000897  3.63779  -0.001  -0.350725  -0.283625  -0.001152  3.596355  -0.001
N  N61  1  0.49150288  0.72476069  0.70547187  1  -0.355707  -0.002584  3.353551  -0.002  -0.298306  -0.000931  3.613141  -0.001  -0.319961  -0.000898  3.637943  -0.001  -0.350782  -0.283658  -0.001153  3.596518  -0.001
N  N62  1  0.28301967  0.83617042  0.45361374  1  -0.28987  0.058673  3.306356  0.087  -0.247132  0.035681  3.583031  0.054  -0.274006  0.028812  3.600784  0.045  -0.330672  -0.226918  0.04104  3.570069  0.06
N  N63  1  0.71696804  0.16382468  0.54638846  1  -0.289773  0.058669  3.306208  0.087  -0.246928  0.035681  3.582768  0.054  -0.273799  0.028811  3.600521  0.045  -0.330547  -0.226715  0.041037  3.56981  0.06
N  N64  1  0.32197201  0.81729838  0.99372570  1  -0.258078  0.033325  3.263869  0.046  -0.216001  0.023376  3.542367  0.032  -0.250141  0.020161  3.566324  0.028  -0.310077  -0.191566  0.024667  3.525226  0.033
N  N65  1  0.67803718  0.18271117  0.00627740  1  -0.25805  0.033308  3.263609  0.046  -0.215873  0.023373  3.542003  0.032  -0.250013  0.020158  3.565962  0.028  -0.310061  -0.191438  0.024664  3.52486  0.033
O  O66  1  0.39057135  0.03956481  0.15151560  1  -0.809033  -0.02389  1.839902  -0.019  -0.827662  -0.016501  2.190309  -0.012  -0.877396  -0.014929  2.174919  -0.01  -0.549688  -0.791615  -0.016504  2.199829  -0.012
O  O67  1  0.60942829  0.96043219  0.84848585  1  -0.809083  -0.023887  1.839906  -0.019  -0.827714  -0.016499  2.190313  -0.012  -0.877446  -0.014926  2.174924  -0.01  -0.549697  -0.791662  -0.016502  2.199819  -0.012
O  O68  1  0.32758768  0.09202300  0.42442627  1  -0.796101  0.047533  1.652253  0.073  -0.809123  0.027083  1.967569  0.041  -0.851812  0.02032  1.954951  0.031  -0.539272  -0.775754  0.033757  1.975459  0.05
O  O69  1  0.67240230  0.90797402  0.57557440  1  -0.796087  0.047529  1.652272  0.073  -0.809074  0.027082  1.967548  0.041  -0.851795  0.020322  1.954996  0.031  -0.53923  -0.775703  0.033755  1.975436  0.05
O  O70  1  0.03239753  0.93630669  0.26198091  1  -0.938147  -0.000619  1.783784  0.0  -0.919986  -6e-05  2.090684  0.001  -0.963884  -0.000222  2.079688  0.0  -0.608814  -0.889185  0.000119  2.098069  0.001
O  O71  1  0.96759650  0.06369323  0.73801924  1  -0.938037  -0.000617  1.783709  0.0  -0.919908  -5.9e-05  2.090673  0.001  -0.963787  -0.000223  2.079641  0.0  -0.608773  -0.889108  0.000119  2.098057  0.001
O  O72  1  0.64118297  0.96554643  0.33851374  1  -0.842466  0.035164  1.712058  0.055  -0.848237  0.023115  2.040992  0.035  -0.890104  0.017237  2.025286  0.027  -0.550133  -0.817348  0.02922  2.051136  0.044
O  O73  1  0.35881158  0.03445155  0.66148701  1  -0.842467  0.035167  1.712076  0.055  -0.848234  0.023117  2.041  0.035  -0.890103  0.017238  2.025293  0.027  -0.550139  -0.817332  0.029221  2.051118  0.044
O  O74  1  0.74071738  0.94413761  0.08706832  1  -0.801246  0.002547  1.580754  0.003  -0.803551  -0.00015  1.883988  0.0  -0.840242  -0.000953  1.8653  -0.001  -0.543592  -0.779692  0.001223  1.897406  0.001
O  O75  1  0.25928124  0.05586326  0.91293101  1  -0.801255  0.002547  1.580886  0.003  -0.803566  -0.00015  1.884141  0.0  -0.840263  -0.000954  1.865456  -0.001  -0.543585  -0.779705  0.001223  1.897557  0.001
O  O76  1  0.12658362  0.19931791  0.25545391  1  -0.761901  -0.01115  1.471297  -0.011  -0.761492  -0.005411  1.739868  -0.006  -0.792377  -0.004073  1.729908  -0.004  -0.543767  -0.73916  -0.007073  1.746943  -0.007
O  O77  1  0.87341517  0.80068006  0.74454412  1  -0.761873  -0.011148  1.471284  -0.011  -0.761478  -0.00541  1.739894  -0.006  -0.79236  -0.00407  1.729931  -0.004  -0.543763  -0.739161  -0.007072  1.746996  -0.007
O  O78  1  0.67062249  0.72603467  0.20619993  1  -0.781467  0.007299  1.436737  0.011  -0.767976  0.004266  1.693283  0.007  -0.798018  0.002891  1.682307  0.005  -0.558245  -0.747449  0.006014  1.70076  0.009
O  O79  1  0.32936799  0.27396332  0.79379820  1  -0.781443  0.0073  1.436744  0.011  -0.767969  0.004266  1.693302  0.007  -0.798016  0.00289  1.682329  0.005  -0.558217  -0.747443  0.006014  1.700784  0.009
