# generated using pymatgen
data_Zn4H28C44N4O13
_symmetry_space_group_name_H-M   'P 1'
_cell_length_a   21.51116823
_cell_length_b   21.51117166
_cell_length_c   21.55179196
_cell_angle_alpha   69.14961649
_cell_angle_beta   69.15024056
_cell_angle_gamma   106.66794968
_symmetry_Int_Tables_number   1
_chemical_formula_structural   Zn4H28C44N4O13
_chemical_formula_sum   'Zn8 H56 C88 N8 O26'
_cell_volume   7671.16306198
_cell_formula_units_Z   2
loop_
 _symmetry_equiv_pos_site_id
 _symmetry_equiv_pos_as_xyz
  1  'x, y, z'
loop_
 _atom_site_type_symbol
 _atom_site_label
 _atom_site_symmetry_multiplicity
 _atom_site_fract_x
 _atom_site_fract_y
 _atom_site_fract_z
 _atom_site_occupancy
 _atom_site_pbe_bader_charge
 _atom_site_pbe_bader_spin_density
 _atom_site_pbe_cm5_charge
 _atom_site_pbe_ddec_charge
 _atom_site_pbe_ddec_spin_density
 _atom_site_pbe_ddec_sum_bond_order
 _atom_site_pbe_magmom
Zn  Zn0  1  0.80285621  0.35993078  0.43023446  1  1.316048  0  0.669785  0.9714  0  2.321842  0
Zn  Zn1  1  0.21105301  0.64094077  0.55975767  1  1.304646  0  0.665597  0.953277  0  2.384414  0
Zn  Zn2  1  0.35905649  0.78894452  0.44024035  1  1.304639  0  0.665569  0.953125  0  2.384266  0
Zn  Zn3  1  0.64007624  0.19714503  0.56976909  1  1.31614  0  0.669744  0.97124  0  2.321959  0
Zn  Zn4  1  0.79015615  0.23307874  0.56977241  1  1.317764  0  0.66965  0.971194  0  2.322077  0
Zn  Zn5  1  0.20070829  0.77081248  0.44023980  1  1.305831  0  0.665567  0.953133  0  2.384256  0
Zn  Zn6  1  0.22917758  0.79928642  0.55976233  1  1.305988  0  0.665408  0.952903  0  2.38474  0
Zn  Zn7  1  0.76692431  0.20985159  0.43023177  1  1.317468  0  0.669639  0.971118  0  2.322067  0
H  H8  1  0.93008790  0.37266036  0.04802800  1  0.054493  0  0.102359  0.100539  0  1.005957  0
H  H9  1  0.42655418  0.36597421  0.56120135  1  0.050119  0  0.103423  0.102377  0  1.003954  0
H  H10  1  0.05852477  0.47250117  0.69358980  1  0.432265  0  0.301733  0.297694  0  0.951628  0
H  H11  1  0.46184359  0.95572142  0.36196141  1  0.426085  0  0.298393  0.292518  0  0.973562  0
H  H12  1  0.52757427  0.94148893  0.30638241  1  0.432674  0  0.301753  0.297664  0  0.951593  0
H  H13  1  0.54015533  0.18977435  0.48469913  1  0.464348  0  0.304183  0.297948  0  0.93875  0
H  H14  1  0.48342947  0.18248564  0.56705051  1  0.428403  0  0.299166  0.288679  0  0.963346  0
H  H15  1  0.97513050  0.32551217  0.48474984  1  0.458246  0  0.304287  0.297724  0  0.938833  0
H  H16  1  0.94955596  0.25046658  0.56708065  1  0.416442  0  0.299227  0.288593  0  0.963482  0
H  H17  1  0.17622135  0.68226927  0.36195245  1  0.42785  0  0.298292  0.292447  0  0.973547  0
H  H18  1  0.16609542  0.75212826  0.30639113  1  0.434813  0  0.301755  0.297726  0  0.951469  0
H  H19  1  0.31766906  0.82381365  0.63804455  1  0.429111  0  0.298469  0.292697  0  0.973705  0
H  H20  1  0.02188010  0.57931732  0.04801679  1  0.024583  0  0.10237  0.100622  0  1.00579  0
H  H21  1  0.24786283  0.83396275  0.69363236  1  0.434597  0  0.301638  0.296876  0  0.951636  0
H  H22  1  0.67445135  0.02483344  0.51531654  1  0.457572  0  0.304262  0.298011  0  0.938857  0
H  H23  1  0.74951794  0.05043313  0.43297983  1  0.417835  0  0.299164  0.288646  0  0.963424  0
H  H24  1  0.03789901  0.43203389  0.94070338  1  0.056497  0  0.1032  0.101574  0  1.005056  0
H  H25  1  0.00911996  0.96229829  0.60930167  1  0.062983  0  0.102415  0.100116  0  1.005704  0
H  H26  1  0.92735466  0.98792965  0.43859573  1  0.050355  0  0.103246  0.102269  0  1.004424  0
H  H27  1  0.62733076  0.06990777  0.95198177  1  0.054128  0  0.102366  0.100563  0  1.006002  0
H  H28  1  0.37273300  0.97860019  0.05931115  1  0.048322  0  0.10325  0.101675  0  1.0052  0
H  H29  1  0.02139393  0.62726547  0.94068869  1  0.048744  0  0.103229  0.101649  0  1.005222  0
H  H30  1  0.38149249  0.42829914  0.60917335  1  0.068183  0  0.102395  0.10015  0  1.006197  0
H  H31  1  0.63402802  0.57344450  0.43880142  1  0.05005  0  0.103475  0.102437  0  1.004175  0
H  H32  1  0.42067787  0.97810907  0.95198507  1  0.024617  0  0.10235  0.10052  0  1.005811  0
H  H33  1  0.56796132  0.96209221  0.05930453  1  0.056607  0  0.103235  0.101622  0  1.005067  0
H  H34  1  0.03769429  0.99087813  0.39069680  1  0.062913  0  0.102373  0.100065  0  1.005611  0
H  H35  1  0.01206578  0.07263587  0.56140683  1  0.05018  0  0.103251  0.102292  0  1.004368  0
H  H36  1  0.57171287  0.61851365  0.39082450  1  0.068141  0  0.1024  0.100119  0  1.005861  0
H  H37  1  0.86122960  0.30104103  0.19140974  1  0.081334  0  0.109455  0.114201  0  0.989007  0
H  H38  1  0.09553427  0.69930302  0.79749758  1  0.096257  0  0.104845  0.10608  0  0.996861  0
H  H39  1  0.30916346  0.49979886  0.60748656  1  0.109791  0  0.107748  0.112208  0  0.993273  0
H  H40  1  0.70552680  0.50142641  0.43617055  1  0.110853  0  0.102816  0.100629  0  1.015446  0
H  H41  1  0.49244287  0.05263490  0.80860203  1  0.078694  0  0.109429  0.11421  0  0.988879  0
H  H42  1  0.49681132  0.89303929  0.20249904  1  0.094087  0  0.104923  0.106206  0  0.996724  0
H  H43  1  0.10750284  0.91685121  0.39238346  1  0.09625  0  0.107642  0.112071  0  0.992929  0
H  H44  1  0.93740345  0.14149164  0.56404801  1  0.049517  0  0.10285  0.100797  0  1.015158  0
H  H45  1  0.50020590  0.69084261  0.39251051  1  0.109707  0  0.107696  0.112113  0  0.993246  0
H  H46  1  0.49856997  0.29447124  0.56384177  1  0.11111  0  0.102826  0.100706  0  1.015196  0
H  H47  1  0.94736055  0.50756023  0.19139889  1  0.07866  0  0.109424  0.114174  0  0.988865  0
H  H48  1  0.10695483  0.50317944  0.79751181  1  0.094257  0  0.104984  0.106295  0  0.996667  0
H  H49  1  0.08314613  0.89249179  0.60761138  1  0.095916  0  0.107642  0.112136  0  0.993017  0
H  H50  1  0.85850117  0.06259414  0.43595642  1  0.049352  0  0.102841  0.100745  0  1.015263  0
H  H51  1  0.69895525  0.13876785  0.80860076  1  0.081184  0  0.109403  0.114127  0  0.988976  0
H  H52  1  0.30069338  0.90446452  0.20250233  1  0.096149  0  0.104908  0.106155  0  0.996797  0
H  H53  1  0.99223570  0.27007790  0.64928211  1  0.049175  0  0.095746  0.102242  0  1.004306  0
H  H54  1  0.05569402  0.72591462  0.29216805  1  0.040003  0  0.097058  0.105322  0  0.998803  0
H  H55  1  0.27410589  0.94438446  0.70778001  1  0.04085  0  0.096909  0.105109  0  0.998641  0
H  H56  1  0.72992265  0.00773174  0.35077657  1  0.05031  0  0.095698  0.102139  0  1.004379  0
H  H57  1  0.91936439  0.64151699  0.35070007  1  0.049201  0  0.095793  0.102256  0  1.004294  0
H  H58  1  0.01808330  0.34787046  0.70782000  1  0.063161  0  0.097076  0.105332  0  0.998775  0
H  H59  1  0.65214995  0.98188378  0.29222380  1  0.051286  0  0.096934  0.10513  0  0.998709  0
H  H60  1  0.35851822  0.08071081  0.64922917  1  0.04891  0  0.095693  0.102088  0  1.004147  0
H  H61  1  0.81026895  0.45988052  0.51521787  1  0.46521  0  0.304291  0.29772  0  0.938589  0
H  H62  1  0.81756997  0.51662446  0.43287144  1  0.426339  0  0.299321  0.28864  0  0.963269  0
H  H63  1  0.04421879  0.53817952  0.63803455  1  0.426645  0  0.298235  0.292511  0  0.973432  0
C  C64  1  0.98144585  0.48145278  0.03709207  1  0.038408  0  -0.003989  0.071163  0  3.997558  0
C  C65  1  0.52478674  0.47521383  0.50000059  1  0.168798  0  -0.000396  0.078208  0  3.990564  0
C  C66  1  0.64312274  0.14312637  0.71374614  1  1.541306  0  0.2281  0.608496  0  4.158086  0
C  C67  1  0.84995799  0.15004812  0.49999453  1  1.522031  0  0.226947  0.607765  0  4.157085  0
C  C68  1  0.14292460  0.85706882  0.49999344  1  1.552563  0  0.226819  0.604032  0  4.160959  0
C  C69  1  0.14873377  0.64872553  0.70252810  1  1.479669  0  0.228254  0.611044  0  4.149063  0
C  C70  1  0.85687044  0.35687627  0.28626081  1  1.542007  0  0.228051  0.608574  0  4.158109  0
C  C71  1  0.35126450  0.85126039  0.29747472  1  1.478618  0  0.228398  0.611224  0  4.148937  0
C  C72  1  0.65004412  0.34994645  0.50001021  1  1.51953  0  0.226833  0.607455  0  4.156911  0
C  C73  1  0.35708117  0.64292175  0.49999516  1  1.58026  0  0.227236  0.604413  0  4.160839  0
C  C74  1  0.93575008  0.40254826  0.07890378  1  -0.007302  0  -0.088941  -0.133181  0  3.985191  0
C  C75  1  0.04143816  0.60007156  0.90981388  1  0.001912  0  -0.088214  -0.131347  0  3.978221  0
C  C76  1  0.40743893  0.48532704  0.56062653  1  -0.009644  0  -0.089088  -0.13249  0  3.981964  0
C  C77  1  0.60393583  0.51238575  0.46480686  1  -0.148713  0  -0.089145  -0.132672  0  3.982158  0
C  C78  1  0.48144273  0.01465283  0.92110751  1  -0.031126  0  -0.088827  -0.133109  0  3.985013  0
C  C79  1  0.50988804  0.95125583  0.09018695  1  0.055214  0  -0.088243  -0.131346  0  3.978206  0
C  C80  1  0.04608027  0.96817091  0.43930195  1  0.023164  0  -0.089012  -0.132237  0  3.981493  0
C  C81  1  0.02411936  0.52412336  0.95174965  1  -0.076743  0  0.00154  0.078845  0  3.985432  0
C  C82  1  0.97708376  0.06862433  0.53531484  1  -0.092291  0  -0.08893  -0.132831  0  3.983056  0
C  C83  1  0.51467629  0.59256897  0.43937505  1  -0.010142  0  -0.089041  -0.132312  0  3.98221  0
C  C84  1  0.48762024  0.39606714  0.53519531  1  -0.148944  0  -0.089102  -0.132683  0  3.982116  0
C  C85  1  0.98533456  0.51855207  0.07889779  1  -0.030883  0  -0.088914  -0.133358  0  3.985036  0
C  C86  1  0.04873738  0.49010683  0.90981878  1  0.055425  0  -0.088157  -0.131126  0  3.978025  0
C  C87  1  0.03182402  0.95391603  0.56069790  1  0.02318  0  -0.089031  -0.13231  0  3.98122  0
C  C88  1  0.93136579  0.02290679  0.46468932  1  -0.092482  0  -0.088905  -0.132765  0  3.982831  0
C  C89  1  0.59744711  0.06424287  0.92110416  1  -0.007098  0  -0.088887  -0.133279  0  3.984944  0
C  C90  1  0.39992415  0.95855889  0.09018881  1  0.002201  0  -0.088267  -0.131441  0  3.978028  0
C  C91  1  0.01798617  0.98200737  0.49999765  1  -0.09765  0  -0.001297  0.074124  0  3.995179  0
C  C92  1  0.97521364  0.02477515  0.50000468  1  0.054732  0  -0.000467  0.07821  0  3.991483  0
C  C93  1  0.89627908  0.36215260  0.15922851  1  -0.064814  0  -0.080801  -0.083456  0  3.981208  0
C  C94  1  0.08235653  0.64055786  0.82952591  1  -0.073455  0  -0.081564  -0.081974  0  3.990311  0
C  C95  1  0.36689940  0.52533337  0.56048623  1  -0.067698  0  -0.079265  -0.080892  0  3.980086  0
C  C96  1  0.64423373  0.47217764  0.46416789  1  0.036742  0  -0.083454  -0.083774  0  3.997279  0
C  C97  1  0.52136924  0.05550412  0.84078513  1  -0.008039  0  -0.080659  -0.083387  0  3.980576  0
C  C98  1  0.51853911  0.01854366  0.96291456  1  0.038317  0  -0.004023  0.071168  0  3.997579  0
C  C99  1  0.47009366  0.91189003  0.17046936  1  -0.168645  0  -0.081669  -0.082062  0  3.990395  0
C  C100  1  0.08593634  0.92749237  0.43944131  1  -0.108886  0  -0.07917  -0.080907  0  3.979995  0
C  C101  1  0.93625064  0.10829129  0.53593936  1  0.041354  0  -0.083537  -0.083705  0  3.99768  0
C  C102  1  0.47467403  0.63310218  0.43951411  1  -0.068043  0  -0.079205  -0.080799  0  3.980321  0
C  C103  1  0.52782527  0.35577516  0.53583462  1  0.037015  0  -0.083466  -0.083778  0  3.997814  0
C  C104  1  0.94448708  0.47862740  0.15922079  1  -0.008644  0  -0.080708  -0.083278  0  3.980999  0
C  C105  1  0.08810317  0.52989912  0.82953863  1  -0.16908  0  -0.081809  -0.082378  0  3.990781  0
C  C106  1  0.07250516  0.91405614  0.56055364  1  -0.108701  0  -0.079127  -0.080931  0  3.979954  0
C  C107  1  0.89170609  0.06374913  0.46405616  1  0.041571  0  -0.083441  -0.083535  0  3.997543  0
C  C108  1  0.63784310  0.10371432  0.84077879  1  -0.064454  0  -0.080745  -0.083321  0  3.980894  0
C  C109  1  0.47587474  0.97587517  0.04825576  1  -0.076762  0  0.00152  0.078886  0  3.985556  0
C  C110  1  0.35943825  0.91764183  0.17047568  1  -0.073234  0  -0.081613  -0.081921  0  3.990388  0
C  C111  1  0.89995938  0.39996663  0.20007459  1  0.018019  0  -0.017127  -0.039367  0  3.977168  0
C  C112  1  0.10573701  0.60573342  0.78851648  1  0.069333  0  -0.022993  -0.049555  0  3.994226  0
C  C113  1  0.40023906  0.59976390  0.49999777  1  -0.073996  0  -0.018932  -0.042252  0  3.979328  0
C  C114  1  0.60668466  0.39330754  0.50000977  1  -0.1013  0  -0.021081  -0.045722  0  3.983423  0
C  C115  1  0.60003336  0.10003548  0.79993110  1  0.017587  0  -0.017332  -0.039454  0  3.976919  0
C  C116  1  0.39425861  0.89425631  0.21148619  1  0.069285  0  -0.022943  -0.049643  0  3.994186  0
C  C117  1  0.09976715  0.90022687  0.49999830  1  0.03116  0  -0.018823  -0.04188  0  3.979341  0
C  C118  1  0.89331412  0.10668519  0.49999828  1  0.016334  0  -0.021124  -0.046  0  3.983213  0
C  C119  1  0.48202551  0.51798579  0.49999693  1  -0.046403  0  -0.001302  0.074076  0  3.995084  0
C  C120  1  0.91775366  0.54603674  0.43100389  1  0.346582  0  0.07499  0.223041  0  4.094722  0
C  C121  1  0.02437845  0.44490353  0.62469932  1  0.401808  0  0.086011  0.248036  0  4.075449  0
C  C122  1  0.55510137  0.97559535  0.37531799  1  0.402441  0  0.08602  0.247616  0  4.076395  0
C  C123  1  0.45398702  0.08229353  0.56893786  1  0.355486  0  0.074838  0.22313  0  4.094409  0
C  C124  1  0.97706259  0.34877059  0.56897289  1  0.367076  0  0.074973  0.223186  0  4.094626  0
C  C125  1  0.06961326  0.64908784  0.37528559  1  0.442626  0  0.085963  0.247848  0  4.075671  0
C  C126  1  0.35091054  0.93043064  0.62468255  1  0.44319  0  0.08598  0.247835  0  4.076021  0
C  C127  1  0.65121828  0.02290782  0.43107263  1  0.3684  0  0.074829  0.223057  0  4.094804  0
C  C128  1  0.95158777  0.62103977  0.37405145  1  0.002967  0  -0.118617  -0.204289  0  4.077463  0
C  C129  1  0.01294518  0.37099526  0.65691314  1  -0.051161  0  -0.116404  -0.20131  0  4.046569  0
C  C130  1  0.62901978  0.98703000  0.34312198  1  -0.040096  0  -0.116308  -0.201035  0  4.045659  0
C  C131  1  0.37899068  0.04847121  0.62589500  1  -0.006163  0  -0.118447  -0.204225  0  4.076922  0
C  C132  1  0.99510254  0.32564977  0.62593142  1  -0.021927  0  -0.118461  -0.204215  0  4.0774  0
C  C133  1  0.02791400  0.66986717  0.34307388  1  -0.005934  0  -0.116267  -0.201067  0  4.04642  0
C  C134  1  0.33015258  0.97215116  0.65687818  1  -0.007175  0  -0.116198  -0.200949  0  4.045761  0
C  C135  1  0.67435868  0.00487849  0.37410741  1  -0.024282  0  -0.118355  -0.204016  0  4.076809  0
C  C136  1  0.03077825  0.57660883  0.44510233  1  -0.017224  0  -0.00429  -0.012677  0  3.907745  0
C  C137  1  0.98127168  0.42209789  0.53959026  1  0.033756  0  -0.008204  -0.024466  0  3.945101  0
C  C138  1  0.57789691  0.01870672  0.46043027  1  0.026411  0  -0.008226  -0.024702  0  3.945403  0
C  C139  1  0.42338766  0.96924459  0.55487510  1  -0.018038  0  -0.004318  -0.012809  0  3.908022  0
C  C140  1  0.02172244  0.47588902  0.55488055  1  0.075091  0  -0.004461  -0.012879  0  3.908174  0
C  C141  1  0.96169872  0.52086815  0.46038737  1  0.001274  0  -0.008276  -0.024658  0  3.945223  0
C  C142  1  0.47913798  0.03832707  0.53957690  1  0.002279  0  -0.008271  -0.024762  0  3.945338  0
C  C143  1  0.52411305  0.97826540  0.44512562  1  0.082413  0  -0.004454  -0.012803  0  3.908008  0
C  C144  1  0.61414486  0.11413494  0.50000459  1  1.52485  0  0.215452  0.600948  0  4.201219  0
C  C145  1  0.38822129  0.88821745  0.50000327  1  1.482037  0  0.204522  0.576645  0  4.194853  0
C  C146  1  0.11177983  0.61178655  0.49998502  1  1.482281  0  0.204535  0.576935  0  4.195111  0
C  C147  1  0.88586596  0.38585357  0.49999027  1  1.526472  0  0.215507  0.601344  0  4.200835  0
C  C148  1  0.05395143  0.55394965  0.49999337  1  -0.090449  0  -0.02669  -0.133641  0  3.919203  0
C  C149  1  0.94444618  0.44444137  0.49998648  1  -0.016232  0  -0.005199  -0.075542  0  3.872927  0
C  C150  1  0.55556035  0.05555815  0.50000542  1  -0.016294  0  -0.005126  -0.075141  0  3.872895  0
C  C151  1  0.44604611  0.94604827  0.50000407  1  -0.090238  0  -0.026614  -0.133397  0  3.918883  0
N  N152  1  0.84450168  0.49454806  0.45700467  1  -1.224286  0  -0.596993  -0.615123  0  3.394189  0
N  N153  1  0.03219836  0.48341021  0.66344453  1  -1.194487  0  -0.606742  -0.623013  0  3.347675  0
N  N154  1  0.51662559  0.96778599  0.33655087  1  -1.194051  0  -0.606861  -0.622726  0  3.348751  0
N  N155  1  0.50548911  0.15554758  0.54291341  1  -1.226032  0  -0.596596  -0.615306  0  3.393715  0
N  N156  1  0.95159663  0.30152552  0.54296058  1  -1.204468  0  -0.596844  -0.615101  0  3.394326  0
N  N157  1  0.14685825  0.69565302  0.33654255  1  -1.198273  0  -0.606707  -0.622812  0  3.34796  0
N  N158  1  0.30432857  0.85318150  0.66345402  1  -1.198664  0  -0.606839  -0.621948  0  3.348393  0
N  N159  1  0.69844508  0.04836890  0.45710371  1  -1.205496  0  -0.596647  -0.615258  0  3.394269  0
O  O160  1  0.75000198  0.25000342  0.50000150  1  -1.23048  0  -0.579611  -1.035034  0  2.513625  0
O  O161  1  0.40450274  0.84062451  0.48426724  1  -1.165279  0  -0.326511  -0.563025  0  2.350669  0
O  O162  1  0.11121136  0.67511134  0.48427328  1  -1.163144  0  -0.326536  -0.563137  0  2.350064  0
O  O163  1  0.82716471  0.33309884  0.56507857  1  -1.158735  0  -0.324121  -0.562517  0  2.28129  0
O  O164  1  0.66690895  0.17283301  0.43491418  1  -1.156703  0  -0.324144  -0.56249  0  2.281171  0
O  O165  1  0.32487127  0.88877295  0.51574415  1  -1.162848  0  -0.326599  -0.563302  0  2.34963  0
O  O166  1  0.15939318  0.59550849  0.51570490  1  -1.16468  0  -0.32657  -0.563315  0  2.350084  0
O  O167  1  0.89818898  0.39222273  0.43491366  1  -1.156706  0  -0.323949  -0.56245  0  2.281251  0
O  O168  1  0.60776531  0.10181683  0.56508258  1  -1.15665  0  -0.3239  -0.562206  0  2.281431  0
O  O169  1  0.24999808  0.74999483  0.50000163  1  -1.228404  0  -0.580317  -1.023536  0  2.555535  0
O  O170  1  0.61103418  0.27804010  0.53934836  1  -1.172411  0  -0.313338  -0.551584  0  2.36619  0
O  O171  1  0.39215359  0.71188843  0.44554486  1  -1.180191  0  -0.317634  -0.546377  0  2.324424  0
O  O172  1  0.27913236  0.81896262  0.33075782  1  -1.154665  0  -0.317508  -0.556974  0  2.342891  0
O  O173  1  0.71390068  0.16426489  0.68044721  1  -1.172707  0  -0.315544  -0.544708  0  2.317735  0
O  O174  1  0.81741044  0.15039517  0.46063702  1  -1.175343  0  -0.313496  -0.55177  0  2.36638  0
O  O175  1  0.15740891  0.83766142  0.55447181  1  -1.167277  0  -0.317462  -0.546314  0  2.324175  0
O  O176  1  0.14972946  0.60987888  0.66924395  1  -1.167592  0  -0.317485  -0.556925  0  2.342693  0
O  O177  1  0.84470566  0.39434894  0.31955717  1  -1.168572  0  -0.315493  -0.544729  0  2.318202  0
O  O178  1  0.18102580  0.72085969  0.66924437  1  -1.155198  0  -0.317381  -0.556845  0  2.342967  0
O  O179  1  0.83573889  0.28609887  0.31955883  1  -1.173717  0  -0.315588  -0.544747  0  2.317556  0
O  O180  1  0.84960785  0.18259255  0.53935497  1  -1.175144  0  -0.3133  -0.551575  0  2.366418  0
O  O181  1  0.16233215  0.84258479  0.44552129  1  -1.166644  0  -0.317374  -0.546161  0  2.324336  0
O  O182  1  0.39011293  0.85027216  0.33075834  1  -1.167256  0  -0.317571  -0.557062  0  2.342785  0
O  O183  1  0.60564861  0.15528923  0.68044771  1  -1.168644  0  -0.31555  -0.544703  0  2.317987  0
O  O184  1  0.72195054  0.38895833  0.46067369  1  -1.172094  0  -0.313463  -0.551653  0  2.366392  0
O  O185  1  0.28810537  0.60783944  0.55445348  1  -1.179838  0  -0.317493  -0.546379  0  2.324106  0
