# generated using pymatgen
data_NiH6C6(N2O)4
_symmetry_space_group_name_H-M   'P 1'
_cell_length_a   8.21279653
_cell_length_b   8.21281301
_cell_length_c   9.50745387
_cell_angle_alpha   66.03383027
_cell_angle_beta   66.03374725
_cell_angle_gamma   60.31810001
_symmetry_Int_Tables_number   1
_chemical_formula_structural   NiH6C6(N2O)4
_chemical_formula_sum   'Ni2 H12 C12 N16 O8'
_cell_volume   491.82683014
_cell_formula_units_Z   2
loop_
 _symmetry_equiv_pos_site_id
 _symmetry_equiv_pos_as_xyz
  1  'x, y, z'
loop_
 _atom_site_type_symbol
 _atom_site_label
 _atom_site_symmetry_multiplicity
 _atom_site_fract_x
 _atom_site_fract_y
 _atom_site_fract_z
 _atom_site_occupancy
 _atom_site_hle17_ddec_charge
 _atom_site_hle17_ddec_spin_density
 _atom_site_hle17_ddec_sum_bond_order
 _atom_site_hle17_magmom
 _atom_site_hse06_10hf_ddec_charge
 _atom_site_hse06_10hf_ddec_spin_density
 _atom_site_hse06_10hf_ddec_sum_bond_order
 _atom_site_hse06_10hf_magmom
 _atom_site_hse06_ddec_charge
 _atom_site_hse06_ddec_spin_density
 _atom_site_hse06_ddec_sum_bond_order
 _atom_site_hse06_magmom
 _atom_site_pbe_cm5_charge
 _atom_site_pbe_ddec_charge
 _atom_site_pbe_ddec_spin_density
 _atom_site_pbe_ddec_sum_bond_order
 _atom_site_pbe_magmom
Ni  Ni0  1  0.54271447  0.45728556  0.25000013  1  0.904108  1.763483  2.005  1.532  0.917014  1.823621  2.390284  1.652  0.998781  1.875379  2.325554  1.735  0.661567  0.845829  1.773439  2.450474  1.573
Ni  Ni1  1  0.45728721  0.54271257  0.75000033  1  0.904081  1.76346  2.00468  1.532  0.916948  1.823649  2.389944  1.652  0.9987  1.87541  2.32522  1.735  0.661652  0.84568  1.773427  2.45022  1.573
H  H2  1  0.98580062  0.09191797  0.83825887  1  0.133077  -0.000459  0.916764  0.0  0.140872  -3.4e-05  0.986267  0.0  0.14369  -4.6e-05  0.984032  0.0  0.128286  0.138708  -8e-06  0.988053  0.0
H  H3  1  0.90808253  0.01419669  0.66174325  1  0.133045  -0.000466  0.916758  0.0  0.140826  -3.4e-05  0.986277  0.0  0.143644  -4.6e-05  0.98404  0.0  0.128273  0.138666  -8e-06  0.988066  0.0
H  H4  1  0.01420162  0.90807870  0.16173875  1  0.133075  -0.00047  0.916765  0.0  0.140872  -3.4e-05  0.986269  0.0  0.143689  -4.6e-05  0.984035  0.0  0.128295  0.138706  -8e-06  0.988055  0.0
H  H5  1  0.09192087  0.98579710  0.33826024  1  0.133049  -0.000454  0.916786  0.0  0.140823  -3.4e-05  0.986312  0.0  0.143641  -4.6e-05  0.984075  0.0  0.128273  0.138662  -8e-06  0.9881  0.0
H  H6  1  0.91479179  0.32908572  0.70759539  1  0.131657  0.000291  0.949004  0.001  0.134074  0.000379  1.0262  0.001  0.136398  0.000221  1.024881  0.0  0.126621  0.132571  0.000518  1.027008  0.001
H  H7  1  0.67091406  0.08520723  0.79240645  1  0.131621  0.000291  0.949012  0.001  0.13404  0.000379  1.026212  0.001  0.136363  0.000221  1.024891  0.0  0.126613  0.132542  0.000518  1.027021  0.001
H  H8  1  0.08520873  0.67091530  0.29240130  1  0.131667  0.000288  0.948984  0.001  0.134094  0.000379  1.026156  0.001  0.136421  0.000221  1.024832  0.0  0.126617  0.132588  0.000517  1.026969  0.001
H  H9  1  0.32908801  0.91478656  0.20759752  1  0.131637  0.000293  0.949012  0.001  0.134061  0.000379  1.026188  0.001  0.136388  0.000221  1.024864  0.0  0.126598  0.132562  0.000517  1.027002  0.001
H  H10  1  0.12120373  0.52329398  0.65075289  1  0.130799  2.1e-05  0.967026  0.0  0.130195  -7e-06  1.044627  0.0  0.133709  -2.1e-05  1.040169  0.0  0.14997  0.127342  2.3e-05  1.048244  0.0
H  H11  1  0.47670541  0.87879487  0.84924733  1  0.130812  1.6e-05  0.967043  0.0  0.130232  -7e-06  1.04461  0.0  0.133746  -2.1e-05  1.040152  0.0  0.149993  0.127379  2.3e-05  1.048228  0.0
H  H12  1  0.87879489  0.47670850  0.34924606  1  0.130797  1.2e-05  0.96706  0.0  0.130201  -8e-06  1.04464  0.0  0.133714  -2.2e-05  1.040183  0.0  0.149968  0.127351  2.2e-05  1.048258  0.0
H  H13  1  0.52329492  0.12120326  0.15075150  1  0.130799  1.2e-05  0.967037  0.0  0.130212  -8e-06  1.044617  0.0  0.133725  -2.1e-05  1.040161  0.0  0.149994  0.127361  2.2e-05  1.048235  0.0
C  C14  1  0.93896015  0.24660793  0.82625343  1  -0.188745  0.00543  3.596149  0.008  -0.261929  0.003049  3.839646  0.004  -0.264015  0.001939  3.845467  0.003  -0.049287  -0.260061  0.004346  3.836162  0.006
C  C15  1  0.75339322  0.06103874  0.67374794  1  -0.188648  0.005432  3.596064  0.008  -0.261826  0.003049  3.8396  0.004  -0.263905  0.001939  3.845412  0.003  -0.049259  -0.259988  0.004346  3.836152  0.006
C  C16  1  0.06104228  0.75339165  0.17374520  1  -0.188718  0.005447  3.59614  0.008  -0.261858  0.003051  3.839613  0.004  -0.263941  0.001939  3.84543  0.003  -0.049271  -0.260004  0.004349  3.836137  0.006
C  C17  1  0.24661093  0.93895649  0.32625268  1  -0.188651  0.005418  3.596168  0.008  -0.261782  0.003051  3.839652  0.004  -0.26386  0.001941  3.845466  0.003  -0.049222  -0.25995  0.004349  3.836202  0.006
C  C18  1  0.16161446  0.41261277  0.75599513  1  0.170232  -0.008553  3.574655  -0.004  0.091689  -0.003262  3.844931  -0.001  0.106933  -0.003763  3.85349  -0.001  0.182289  0.081268  -0.002998  3.839341  0.0
C  C19  1  0.58738546  0.83838769  0.74400422  1  0.170186  -0.00854  3.574741  -0.004  0.091635  -0.003262  3.845003  -0.001  0.106875  -0.003766  3.853559  -0.001  0.182232  0.081215  -0.002998  3.839412  0.0
C  C20  1  0.83839026  0.58738101  0.24400369  1  0.17024  -0.0085  3.574631  -0.004  0.091676  -0.003265  3.844901  -0.001  0.106916  -0.003768  3.853464  -0.001  0.182248  0.081254  -0.003002  3.839314  0.0
C  C21  1  0.41261354  0.16161044  0.25599509  1  0.170143  -0.0085  3.574739  -0.004  0.091616  -0.003264  3.845021  -0.001  0.106857  -0.003767  3.853581  -0.001  0.182228  0.081196  -0.003  3.839432  0.0
C  C22  1  0.74910324  0.30742672  0.95582599  1  0.681063  -0.005165  3.843562  -0.004  0.640214  0.003735  4.160394  0.005  0.677541  0.002719  4.152869  0.004  0.214836  0.612916  0.004391  4.163639  0.005
C  C23  1  0.69257342  0.25089628  0.54417662  1  0.681056  -0.005153  3.8437  -0.004  0.640247  0.003735  4.16047  0.005  0.677576  0.00272  4.152942  0.004  0.214851  0.612956  0.004392  4.16372  0.005
C  C24  1  0.25087778  0.69258296  0.04415245  1  0.680986  -0.005142  3.843422  -0.004  0.640079  0.003741  4.160392  0.005  0.677402  0.002723  4.15287  0.004  0.214789  0.612787  0.004402  4.163636  0.005
C  C25  1  0.30741710  0.74912371  0.45585056  1  0.6809  -0.005114  3.843645  -0.004  0.640069  0.003741  4.16049  0.005  0.677391  0.002721  4.152964  0.004  0.214742  0.612783  0.004402  4.163736  0.005
N  N26  1  0.29587017  0.38168569  0.81846493  1  -0.2329  0.039516  3.183725  0.064  -0.204257  0.028006  3.504956  0.046  -0.226904  0.022325  3.51764  0.039  -0.219233  -0.187111  0.032559  3.495987  0.051
N  N27  1  0.61831454  0.70413286  0.68153337  1  -0.232974  0.039515  3.183959  0.064  -0.204261  0.028005  3.505122  0.046  -0.226892  0.022325  3.517794  0.039  -0.219219  -0.187112  0.032558  3.496151  0.051
N  N28  1  0.70412769  0.61831534  0.18153376  1  -0.232951  0.039501  3.18383  0.064  -0.204231  0.028005  3.504967  0.046  -0.226869  0.022325  3.517646  0.039  -0.219202  -0.1871  0.03256  3.496001  0.051
N  N29  1  0.38168675  0.29586961  0.31846359  1  -0.232838  0.039497  3.183737  0.064  -0.20417  0.028004  3.504914  0.046  -0.226806  0.022324  3.517588  0.039  -0.219186  -0.18704  0.032559  3.49595  0.051
N  N30  1  0.30835162  0.21992450  0.94248825  1  -0.0512  -0.00382  2.917315  -0.003  -0.048679  -0.000893  3.232896  -0.001  -0.045619  -0.001337  3.243142  -0.001  -0.070106  -0.051067  -0.000651  3.226104  0.0
N  N31  1  0.78007563  0.69165040  0.55751040  1  -0.051183  -0.003847  2.917376  -0.003  -0.048701  -0.000892  3.232953  -0.001  -0.045646  -0.001335  3.243196  -0.001  -0.070137  -0.051089  -0.000651  3.226157  0.0
N  N32  1  0.69164833  0.78007798  0.05750918  1  -0.051192  -0.003854  2.91734  -0.003  -0.048703  -0.000894  3.232912  -0.001  -0.045645  -0.001337  3.243157  -0.001  -0.070145  -0.051092  -0.000653  3.226122  0.0
N  N33  1  0.21992547  0.30834918  0.44248765  1  -0.051213  -0.003847  2.917312  -0.003  -0.048702  -0.000895  3.232887  -0.001  -0.045644  -0.001338  3.243128  -0.001  -0.070157  -0.051091  -0.000654  3.226099  0.0
N  N34  1  0.09362202  0.27245663  0.84018280  1  0.06345  0.000837  3.555884  0.001  0.182205  0.000469  3.739772  0.001  0.172281  0.000467  3.760465  0.001  -0.115005  0.187242  0.00058  3.728522  0.001
N  N35  1  0.72754533  0.90637782  0.65981709  1  0.063476  0.000848  3.555799  0.001  0.182155  0.000468  3.739769  0.001  0.172217  0.000466  3.760485  0.001  -0.115035  0.1872  0.00058  3.728523  0.001
N  N36  1  0.90637660  0.72754585  0.15981616  1  0.063437  0.000825  3.555799  0.001  0.18218  0.000468  3.739701  0.001  0.172251  0.000467  3.7604  0.001  -0.115005  0.18722  0.000579  3.72845  0.001
N  N37  1  0.27245691  0.09361886  0.34018369  1  0.063467  0.000831  3.555981  0.001  0.18214  0.000469  3.739945  0.001  0.172198  0.000466  3.760671  0.001  -0.115034  0.187188  0.000579  3.728699  0.001
N  N38  1  0.18725258  0.15299350  0.95609831  1  -0.089266  0.001879  2.862972  0.004  -0.097977  0.001517  3.143742  0.003  -0.096427  0.000921  3.152254  0.002  -0.063115  -0.09911  0.002152  3.138869  0.003
N  N39  1  0.84700822  0.81274873  0.54390004  1  -0.089224  0.001889  2.862884  0.004  -0.097889  0.001518  3.143647  0.003  -0.096337  0.000921  3.152162  0.002  -0.063027  -0.099023  0.002152  3.13877  0.003
N  N40  1  0.81274719  0.84700608  0.04390021  1  -0.089295  0.001903  2.863016  0.004  -0.097987  0.001516  3.143781  0.003  -0.096441  0.000919  3.152298  0.002  -0.063107  -0.099117  0.00215  3.138903  0.003
N  N41  1  0.15299554  0.18725085  0.45609707  1  -0.089291  0.001899  2.862949  0.004  -0.09797  0.001516  3.14374  0.003  -0.09642  0.00092  3.152256  0.002  -0.063088  -0.0991  0.00215  3.138861  0.003
O  O42  1  0.59604320  0.34103971  0.92748272  1  -0.623716  0.030299  2.153056  0.053  -0.601104  0.019693  2.444797  0.035  -0.636868  0.01363  2.435233  0.026  -0.311698  -0.571814  0.026104  2.449452  0.043
O  O43  1  0.65896626  0.40395239  0.57252031  1  -0.623734  0.030289  2.153178  0.053  -0.601099  0.019691  2.444866  0.034  -0.636863  0.01363  2.435301  0.026  -0.311703  -0.571804  0.026101  2.449515  0.043
O  O44  1  0.40397087  0.65896424  0.07251867  1  -0.623935  0.030305  2.152268  0.053  -0.601365  0.019697  2.4441  0.035  -0.637143  0.013635  2.434544  0.026  -0.311808  -0.572071  0.026112  2.44874  0.043
O  O45  1  0.34103884  0.59602688  0.42748140  1  -0.623983  0.03031  2.152261  0.053  -0.601439  0.019701  2.444059  0.035  -0.637223  0.013637  2.434507  0.026  -0.311828  -0.572142  0.026117  2.448693  0.043
O  O46  1  0.76264227  0.30693412  0.08401269  1  -0.576461  0.05799  2.057458  0.098  -0.563784  0.035538  2.334206  0.062  -0.600074  0.025254  2.325556  0.046  -0.304334  -0.533744  0.046278  2.338205  0.077
O  O47  1  0.69306498  0.23735763  0.41598892  1  -0.576474  0.057993  2.057518  0.098  -0.563826  0.035539  2.334261  0.062  -0.600117  0.025254  2.325611  0.046  -0.304345  -0.533781  0.046279  2.338252  0.077
O  O48  1  0.23735353  0.69306550  0.91600089  1  -0.576174  0.057941  2.058027  0.098  -0.563449  0.03552  2.334785  0.062  -0.599727  0.025243  2.326153  0.046  -0.304217  -0.533412  0.046249  2.338787  0.077
O  O49  1  0.30693113  0.76264772  0.58399623  1  -0.576092  0.057922  2.058298  0.098  -0.563381  0.035514  2.334995  0.062  -0.59966  0.025239  2.326374  0.046  -0.304162  -0.533348  0.046241  2.338998  0.076
