# generated using pymatgen
data_Cu3H34C56(NO4)4
_symmetry_space_group_name_H-M   'P 1'
_cell_length_a   10.42932002
_cell_length_b   10.57608887
_cell_length_c   11.75830000
_cell_angle_alpha   83.11918036
_cell_angle_beta   86.24760050
_cell_angle_gamma   70.91779990
_symmetry_Int_Tables_number   1
_chemical_formula_structural   Cu3H34C56(NO4)4
_chemical_formula_sum   'Cu3 H34 C56 N4 O16'
_cell_volume   1216.38462642
_cell_formula_units_Z   1
loop_
 _symmetry_equiv_pos_site_id
 _symmetry_equiv_pos_as_xyz
  1  'x, y, z'
loop_
 _atom_site_type_symbol
 _atom_site_label
 _atom_site_symmetry_multiplicity
 _atom_site_fract_x
 _atom_site_fract_y
 _atom_site_fract_z
 _atom_site_occupancy
 _atom_site_pbe_bader_charge
 _atom_site_pbe_bader_spin_density
 _atom_site_pbe_cm5_charge
 _atom_site_pbe_ddec_charge
 _atom_site_pbe_ddec_spin_density
 _atom_site_pbe_ddec_sum_bond_order
 _atom_site_pbe_magmom
Cu  Cu0  1  0.50003610  0.00010161  0.49993142  1  1.116133  0.573948  0.708413  0.915503  0.763342  2.053254  0.573
Cu  Cu1  1  0.77084989  0.77730527  0.69559926  1  1.122089  -0.579432  0.770356  0.851434  -0.745974  2.253235  -0.579
Cu  Cu2  1  0.22934482  0.22303602  0.30448712  1  1.12361  -0.579403  0.769596  0.851049  -0.746302  2.252756  -0.579
H  H3  1  0.92070205  0.70286335  0.93987025  1  0.6634  -4.1e-05  0.295413  0.357795  -1.9e-05  0.993056  0.0
H  H4  1  0.07950992  0.29709364  0.06014088  1  0.662481  -4e-05  0.295459  0.358188  -1.9e-05  0.99293  0.0
H  H5  1  0.24739939  0.48394992  0.92084770  1  0.080268  -6.1e-05  0.102966  0.107792  -4.8e-05  1.024271  0.0
H  H6  1  0.75268716  0.51603525  0.07911834  1  0.079437  -6.2e-05  0.102926  0.107828  -4.8e-05  1.024393  0.0
H  H7  1  0.49323957  0.39192515  0.86770685  1  0.070443  0.000156  0.094101  0.092616  7.9e-05  1.051221  0.0
H  H8  1  0.50681731  0.60794433  0.13221980  1  0.072561  0.000158  0.094133  0.092733  8e-05  1.051511  0.0
H  H9  1  0.59875510  0.52667570  0.72498327  1  0.064599  -1.6e-05  0.100252  0.094018  -7e-06  1.036112  0.0
H  H10  1  0.40137944  0.47322094  0.27499888  1  0.066056  -1.1e-05  0.100161  0.093674  -5e-06  1.035932  0.0
H  H11  1  0.21399757  0.83813501  0.68709566  1  0.107517  0.000416  0.106775  0.113832  0.00036  1.014943  0.0
H  H12  1  0.78617031  0.16180388  0.31284258  1  0.105584  0.000419  0.106954  0.114381  0.000363  1.015158  0.0
H  H13  1  0.41338156  0.80412420  0.87660394  1  0.09477  -0.000299  0.100576  0.10491  -0.000255  1.044992  0.0
H  H14  1  0.58666957  0.19593742  0.12326493  1  0.095005  -0.000295  0.100946  0.10562  -0.000252  1.044728  0.0
H  H15  1  0.19745354  0.88507392  0.99016307  1  0.079424  0.000187  0.101014  0.104431  0.000101  0.992938  0.0
H  H16  1  0.80262082  0.11471809  0.00975901  1  0.080422  0.000189  0.100856  0.104316  0.000102  0.992856  0.0
H  H17  1  0.20164726  0.95927943  0.18357747  1  0.13575  8.5e-05  0.104225  0.114848  5e-05  1.028005  0.0
H  H18  1  0.79844029  0.04026209  0.81644312  1  0.147428  8.3e-05  0.104444  0.115203  4.9e-05  1.02779  0.0
H  H19  1  0.63728035  0.84669304  0.15518769  1  0.10272  0.000268  0.105828  0.106873  0.000245  1.026918  0.0
H  H20  1  0.36285289  0.15252454  0.84496636  1  0.101373  0.000266  0.105928  0.10707  0.000243  1.026867  0.0
H  H21  1  0.78046106  0.51405947  0.85205546  1  0.08834  -0.003417  0.127336  0.099203  -0.001611  0.984894  -0.002
H  H22  1  0.21954913  0.48623756  0.14821309  1  0.089481  -0.003408  0.127167  0.099144  -0.001607  0.985179  -0.002
H  H23  1  0.95261634  0.28367965  0.87396865  1  0.10625  -0.001453  0.116028  0.124917  -0.000749  0.985628  -0.001
H  H24  1  0.04719206  0.71651979  0.12609336  1  0.110609  -0.001449  0.115859  0.124559  -0.000748  0.985865  -0.001
H  H25  1  0.16705206  0.23581824  0.75319414  1  0.114359  -0.000115  0.120144  0.124735  -5.8e-05  0.975966  0.0
H  H26  1  0.83273414  0.76429871  0.24682616  1  0.111151  -0.000112  0.12013  0.124696  -5.7e-05  0.975697  0.0
H  H27  1  0.30922003  0.32600505  0.59730269  1  0.181763  -0.000609  0.11128  0.133526  -0.000267  1.006628  0.0
H  H28  1  0.69055121  0.67409882  0.40264421  1  0.177187  -0.000614  0.111213  0.132781  -0.000269  1.006513  0.0
H  H29  1  0.32939132  0.51277481  0.45946925  1  0.093522  -0.000712  0.107928  0.115666  -0.000362  1.005661  0.0
H  H30  1  0.67035909  0.48728078  0.54047130  1  0.092547  -0.000716  0.108103  0.115797  -0.000363  1.005686  0.0
H  H31  1  0.22061819  0.75626983  0.36392986  1  0.100202  -0.000238  0.113826  0.118089  -0.000136  0.97862  0.0
H  H32  1  0.77913098  0.24382801  0.63599941  1  0.099413  -0.000243  0.113615  0.117766  -0.000139  0.978657  0.0
H  H33  1  0.81477741  0.97254654  0.48345672  1  0.158436  -0.003045  0.124895  0.110219  -0.001437  1.022588  -0.002
H  H34  1  0.18505611  0.02758449  0.51662735  1  0.159078  -0.003041  0.124658  0.109639  -0.001437  1.02301  -0.002
H  H35  1  0.01583393  0.96281652  0.34925741  1  0.139387  -0.001148  0.113364  0.132624  -0.000597  1.007203  -0.001
H  H36  1  0.98392097  0.03728735  0.65071339  1  0.135501  -0.001157  0.113419  0.132805  -0.000598  1.007257  -0.001
C  C37  1  0.06990685  0.73075971  0.83999360  1  1.522898  0.000325  0.215769  0.560048  0.000305  4.18277  0.0
C  C38  1  0.93022947  0.26915806  0.15989857  1  1.524924  0.000321  0.215862  0.559952  0.000304  4.182287  0.0
C  C39  1  0.21586722  0.66773789  0.80782126  1  0.048083  1e-05  -0.024658  -0.059967  -5e-05  4.008575  0.0
C  C40  1  0.78426576  0.33219899  0.19212263  1  0.046868  -5e-06  -0.024644  -0.059503  -6e-05  4.007568  0.0
C  C41  1  0.29453437  0.54133411  0.85860901  1  -0.088823  -0.000589  -0.078429  -0.078048  -0.0004  3.930552  0.0
C  C42  1  0.70557742  0.45861182  0.14135299  1  -0.087221  -0.000587  -0.078669  -0.078608  -0.0004  3.930813  0.0
C  C43  1  0.43190184  0.48950303  0.82787358  1  -0.038715  0.000627  -0.093244  -0.085247  0.000415  4.000429  0.001
C  C44  1  0.56820546  0.51039461  0.17206837  1  -0.040728  0.000596  -0.093457  -0.085492  0.000394  4.000628  0.001
C  C45  1  0.49086367  0.56327395  0.74745834  1  0.019671  0.000608  -0.079029  -0.078461  0.000417  3.953075  0.001
C  C46  1  0.50927563  0.43662873  0.25251693  1  0.020623  0.000568  -0.078652  -0.077882  0.000391  3.952689  0.001
C  C47  1  0.41267173  0.68877132  0.69571417  1  -0.076386  0.006795  -0.019135  -0.033625  0.004927  3.97478  0.005
C  C48  1  0.58747244  0.31116958  0.30429582  1  -0.075898  0.006819  -0.019431  -0.033461  0.004944  3.975665  0.005
C  C49  1  0.27504462  0.73980464  0.72554368  1  -0.035582  0.000232  -0.075217  -0.100041  0.000291  3.934579  0.0
C  C50  1  0.72509800  0.26012922  0.27442293  1  -0.03599  0.000209  -0.075471  -0.101214  0.000277  3.93515  0.0
C  C51  1  0.47912963  0.77250665  0.61725652  1  1.563073  -0.000535  0.20053  0.577799  0.000541  4.199852  -0.002
C  C52  1  0.52102227  0.22752579  0.38277802  1  1.564099  -0.000535  0.200459  0.576998  0.00054  4.199963  -0.002
C  C53  1  0.66772009  0.77878308  0.93771915  1  1.562516  -0.001285  0.216811  0.579249  -0.002324  4.189735  0.0
C  C54  1  0.33229622  0.22116687  0.06226242  1  1.561814  -0.001323  0.217386  0.580109  -0.002347  4.188638  0.0
C  C55  1  0.53848458  0.82074431  0.00863175  1  0.002871  -0.009164  -0.018513  -0.045172  -0.006435  3.968076  -0.007
C  C56  1  0.46159034  0.17886562  0.99140261  1  0.004641  -0.009163  -0.018473  -0.044557  -0.00644  3.966108  -0.007
C  C57  1  0.41423467  0.83083448  0.96292459  1  -0.044413  -0.002068  -0.077227  -0.074752  -0.001375  3.938284  -0.001
C  C58  1  0.58582469  0.16895049  0.03703994  1  -0.044191  -0.002105  -0.077497  -0.075658  -0.0014  3.937901  -0.001
C  C59  1  0.29376525  0.87627646  0.02691411  1  -0.057347  0.001145  -0.091865  -0.086799  0.000803  4.003929  0.001
C  C60  1  0.70630953  0.12335459  0.97307376  1  -0.061306  0.0012  -0.091617  -0.086121  0.000839  4.003539  0.001
C  C61  1  0.29577901  0.91508086  0.13589568  1  -0.0503  -0.000378  -0.079937  -0.088008  -0.000214  3.950141  0.0
C  C62  1  0.70431291  0.08442947  0.86414759  1  -0.058672  -0.000421  -0.080507  -0.089679  -0.000242  3.951575  0.0
C  C63  1  0.42005433  0.90283081  0.18307239  1  -0.08425  0.006805  -0.021666  -0.048281  0.005088  3.985105  0.006
C  C64  1  0.58003293  0.09675296  0.81695387  1  -0.086929  0.006819  -0.021499  -0.047373  0.005099  3.984791  0.006
C  C65  1  0.54110235  0.85425112  0.11965444  1  -0.01387  -0.003033  -0.071625  -0.09431  -0.00187  3.925569  -0.002
C  C66  1  0.45901258  0.14512039  0.88043732  1  -0.010156  -0.003004  -0.071985  -0.095114  -0.001849  3.926652  -0.002
C  C67  1  0.42077846  0.94866412  0.29804837  1  1.552647  -0.009712  0.213267  0.588285  -0.007977  4.155199  -0.01
C  C68  1  0.57925439  0.05145081  0.70175883  1  1.552525  -0.009746  0.213317  0.588033  -0.008003  4.153278  -0.01
C  C69  1  0.87233882  0.48837329  0.79807871  1  0.546366  0.002776  0.065966  0.118998  0.000891  3.909673  0.002
C  C70  1  0.12761486  0.51189657  0.20211866  1  0.545421  0.002765  0.066053  0.118702  0.000889  3.911151  0.002
C  C71  1  0.97022918  0.35989515  0.81008514  1  0.002856  -0.007053  -0.072621  -0.105096  -0.004776  3.946253  -0.006
C  C72  1  0.02962699  0.64029625  0.19001408  1  0.000203  -0.007039  -0.072379  -0.104366  -0.004768  3.946932  -0.006
C  C73  1  0.08861880  0.33392025  0.74371088  1  -0.031553  0.005043  -0.049783  -0.054196  0.003454  3.884204  0.003
C  C74  1  0.91119987  0.66622688  0.25633661  1  -0.03001  0.004989  -0.049855  -0.054002  0.003417  3.884086  0.003
C  C75  1  0.10836070  0.43632894  0.66272187  1  -0.003115  -0.004206  0.005009  0.049798  -0.002987  3.996439  -0.004
C  C76  1  0.89148831  0.56383127  0.33734711  1  -0.009811  -0.004226  0.004635  0.048569  -0.002991  3.997539  -0.004
C  C77  1  0.22755651  0.42216649  0.59094518  1  -0.047851  -0.000994  -0.07348  -0.095696  -0.000661  3.906994  -0.001
C  C78  1  0.77224986  0.57795348  0.40906598  1  -0.040549  -0.001145  -0.073232  -0.094204  -0.000763  3.906727  -0.001
C  C79  1  0.23818941  0.52623608  0.51373077  1  -0.008942  -0.00125  -0.077708  -0.103004  -0.00087  3.937785  -0.001
C  C80  1  0.76160863  0.47388288  0.48627587  1  -0.007083  -0.001377  -0.077946  -0.103437  -0.000951  3.938517  -0.001
C  C81  1  0.13014931  0.65171233  0.49977773  1  -0.028357  -0.003665  0.002009  0.046736  -0.002596  4.009234  -0.003
C  C82  1  0.86967417  0.34843480  0.50026267  1  -0.030453  -0.003679  0.002303  0.046572  -0.002602  4.010502  -0.003
C  C83  1  0.13127305  0.76223138  0.41947347  1  -0.044255  0.004443  -0.05668  -0.063497  0.003032  3.901635  0.003
C  C84  1  0.86852237  0.23789563  0.58051119  1  -0.045191  0.004395  -0.056373  -0.062296  0.003  3.902061  0.003
C  C85  1  0.00219490  0.56094305  0.65345685  1  0.445613  -0.00109  0.114223  0.113355  -0.001407  4.005298  -0.001
C  C86  1  0.99772877  0.43926243  0.34669051  1  0.443775  -0.001128  0.114236  0.114074  -0.001432  4.004715  -0.001
C  C87  1  0.01198894  0.66773890  0.57047700  1  0.498544  -0.001493  0.114197  0.110407  -0.001571  4.012153  -0.001
C  C88  1  0.98790988  0.33244546  0.42963496  1  0.500071  -0.001559  0.114217  0.110325  -0.001615  4.011045  -0.001
C  C89  1  0.90518916  0.88375003  0.48587464  1  0.503598  0.00194  0.066868  0.118795  0.000388  3.874564  0.002
C  C90  1  0.09467077  0.11640616  0.51416692  1  0.503786  0.001897  0.067388  0.119456  0.000353  3.874322  0.002
C  C91  1  0.01836167  0.87668288  0.41135835  1  -0.027069  -0.007339  -0.076702  -0.126526  -0.004908  3.942231  -0.006
C  C92  1  0.98145942  0.12343910  0.58863728  1  -0.02258  -0.007302  -0.077067  -0.127514  -0.004883  3.942558  -0.006
N  N93  1  0.88808289  0.58594011  0.72150562  1  -1.200621  -0.097923  -0.342748  -0.275438  -0.065029  3.645191  -0.084
N  N94  1  0.11190278  0.41433478  0.27872932  1  -1.199138  -0.097937  -0.342691  -0.275603  -0.065005  3.645947  -0.084
N  N95  1  0.90394486  0.78230710  0.56429872  1  -1.211885  -0.093306  -0.333867  -0.250169  -0.061848  3.590156  -0.08
N  N96  1  0.09600248  0.21790241  0.43581111  1  -1.208955  -0.093189  -0.333546  -0.250166  -0.061791  3.587579  -0.08
O  O97  1  0.02442397  0.65808432  0.92272652  1  -1.188886  -0.000301  -0.333272  -0.493101  -0.000199  2.352209  0.0
O  O98  1  0.97580718  0.34202357  0.07739990  1  -1.188451  -0.000294  -0.333656  -0.493897  -0.000195  2.352034  0.0
O  O99  1  0.99910163  0.84040958  0.79288037  1  -1.174778  0.000547  -0.306483  -0.543891  0.000402  2.177773  0.0
O  O100  1  0.00092276  0.15933516  0.20679286  1  -1.177039  0.000624  -0.30672  -0.543733  0.000448  2.176367  0.0
O  O101  1  0.39912777  0.88742293  0.57483532  1  -1.113276  0.094332  -0.331013  -0.544456  0.062865  2.358438  0.085
O  O102  1  0.60103917  0.11256324  0.42511064  1  -1.115148  0.094693  -0.331077  -0.544287  0.063091  2.360034  0.085
O  O103  1  0.60545835  0.73094783  0.59901685  1  -1.187007  0.00058  -0.329524  -0.611614  7e-06  2.341222  0.0
O  O104  1  0.39469764  0.26909569  0.40113618  1  -1.186006  0.000624  -0.329273  -0.610762  3e-05  2.341362  0.0
O  O105  1  0.77894826  0.75106580  0.98700529  1  -1.183081  -0.002214  -0.306782  -0.53806  -0.001068  2.241043  -0.002
O  O106  1  0.22114108  0.24859141  0.01294831  1  -1.182787  -0.002247  -0.306822  -0.538122  -0.001091  2.240968  -0.002
O  O107  1  0.65109508  0.77531339  0.83077203  1  -1.133872  -0.090556  -0.324258  -0.550339  -0.058289  2.410017  -0.081
O  O108  1  0.34879759  0.22531863  0.16911345  1  -1.134733  -0.090378  -0.324656  -0.551058  -0.05819  2.409927  -0.081
O  O109  1  0.53015453  0.90699162  0.35353237  1  -1.089952  0.065286  -0.297246  -0.500163  0.044532  2.264903  0.061
O  O110  1  0.46984946  0.09332150  0.64630107  1  -1.092597  0.065192  -0.29721  -0.50006  0.044435  2.263586  0.061
O  O111  1  0.30998578  0.02683100  0.33892603  1  -1.165975  -0.051345  -0.341802  -0.600331  -0.03286  2.463551  -0.043
O  O112  1  0.69000127  0.97338051  0.66070333  1  -1.163999  -0.051733  -0.341872  -0.600085  -0.033103  2.463597  -0.043
