# generated using pymatgen
data_Ag2H5C9(NO2)2
_symmetry_space_group_name_H-M   'P 1'
_cell_length_a   6.69588683
_cell_length_b   9.00929585
_cell_length_c   9.41838142
_cell_angle_alpha   63.80101442
_cell_angle_beta   72.34126814
_cell_angle_gamma   78.99508659
_symmetry_Int_Tables_number   1
_chemical_formula_structural   Ag2H5C9(NO2)2
_chemical_formula_sum   'Ag4 H10 C18 N4 O8'
_cell_volume   484.69510029
_cell_formula_units_Z   2
loop_
 _symmetry_equiv_pos_site_id
 _symmetry_equiv_pos_as_xyz
  1  'x, y, z'
loop_
 _atom_site_type_symbol
 _atom_site_label
 _atom_site_symmetry_multiplicity
 _atom_site_fract_x
 _atom_site_fract_y
 _atom_site_fract_z
 _atom_site_occupancy
 _atom_site_hle17_bader_spin_density
 _atom_site_hle17_ddec_charge
 _atom_site_hle17_ddec_spin_density
 _atom_site_hle17_ddec_sum_bond_order
 _atom_site_hle17_magmom
 _atom_site_hse06_10hf_bader_spin_density
 _atom_site_hse06_10hf_ddec_charge
 _atom_site_hse06_10hf_ddec_spin_density
 _atom_site_hse06_10hf_ddec_sum_bond_order
 _atom_site_hse06_10hf_magmom
 _atom_site_hse06_bader_spin_density
 _atom_site_hse06_ddec_charge
 _atom_site_hse06_ddec_spin_density
 _atom_site_hse06_ddec_sum_bond_order
 _atom_site_hse06_magmom
 _atom_site_pbe_bader_spin_density
 _atom_site_pbe_cm5_charge
 _atom_site_pbe_ddec_charge
 _atom_site_pbe_ddec_spin_density
 _atom_site_pbe_ddec_sum_bond_order
 _atom_site_pbe_magmom
Ag  Ag0  1  0.79346828  0.93731805  0.19570399  1  0  0.573974  0  1.440131  0  0  0.448595  0  1.897276  0  0  0.478185  0  1.844117  0  0  0.448117  0.428822  0  1.933558  0
Ag  Ag1  1  0.20652945  0.06268303  0.80429582  1  0  0.573982  0  1.440159  0  0  0.448588  0  1.897318  0  0  0.478181  0  1.844156  0  0  0.448106  0.428811  0  1.933599  0
Ag  Ag2  1  0.74886602  0.62009996  0.48467083  1  0  0.584789  0  1.373554  0  0  0.452882  0  1.824527  0  0  0.485685  0  1.769651  0  0  0.44164  0.430332  0  1.86297  0
Ag  Ag3  1  0.25113495  0.37989986  0.51532986  1  0  0.584811  0  1.373547  0  0  0.452908  0  1.824508  0  0  0.485708  0  1.769639  0  0  0.441648  0.430359  0  1.862949  0
H  H4  1  0.70862627  0.70206868  0.79818967  1  0  0.08163  0  0.996097  0  0  0.090199  0  1.060718  0  0  0.090183  0  1.063406  0  0  0.115191  0.089934  0  1.059222  0
H  H5  1  0.29137469  0.29793115  0.20180996  1  0  0.081625  0  0.996095  0  0  0.090195  0  1.06072  0  0  0.090179  0  1.063408  0  0  0.115191  0.089931  0  1.059226  0
H  H6  1  0.15143203  0.58941990  0.93637016  1  0  0.105394  0  0.94  0  0  0.118495  0  0.997113  0  0  0.121679  0  0.99548  0  0  0.106254  0.115913  0  0.999148  0
H  H7  1  0.84856719  0.41058242  0.06362988  1  0  0.105398  0  0.939995  0  0  0.118505  0  0.997107  0  0  0.121688  0  0.995475  0  0  0.106261  0.115922  0  0.999145  0
H  H8  1  0.76316561  0.22949812  0.32848322  1  0  0.093445  0  0.95267  0  0  0.099339  0  1.022249  0  0  0.101729  0  1.020251  0  0  0.120128  0.0973  0  1.02421  0
H  H9  1  0.23683210  0.77050298  0.67151448  1  0  0.093396  0  0.952706  0  0  0.099272  0  1.022309  0  0  0.10166  0  1.02032  0  0  0.120102  0.097233  0  1.024267  0
H  H10  1  0.69646112  0.95647108  0.84853737  1  0  0.13838  0  0.928836  0  0  0.145221  0  0.988465  0  0  0.149614  0  0.984883  0  0  0.120143  0.141656  0  0.991797  0
H  H11  1  0.30354455  0.04352872  0.15146124  1  0  0.138401  0  0.928827  0  0  0.14522  0  0.98847  0  0  0.149612  0  0.984888  0  0  0.120157  0.141656  0  0.991801  0
H  H12  1  0.73191608  0.23349453  0.59926734  1  0  0.136139  0  0.964615  0  0  0.143432  0  1.023652  0  0  0.147218  0  1.021069  0  0  0.117709  0.140359  0  1.026128  0
H  H13  1  0.26808485  0.76650531  0.40073018  1  0  0.136179  0  0.964637  0  0  0.143463  0  1.023663  0  0  0.147251  0  1.021077  0  0  0.11772  0.140378  0  1.026156  0
C  C14  1  0.19226535  0.69880745  0.14815672  1  0  0.667512  0  3.901239  0  0  0.614365  0  4.187288  0  0  0.648606  0  4.182453  0  0  0.206291  0.590964  0  4.189243  0
C  C15  1  0.80773387  0.30119487  0.85184331  1  0  0.66754  0  3.901143  0  0  0.614353  0  4.187247  0  0  0.648594  0  4.182413  0  0  0.206305  0.590951  0  4.189198  0
C  C16  1  0.71881927  0.82519007  0.69934380  1  0  0.094666  0  3.674269  0  0  0.061804  0  3.929675  0  0  0.066006  0  3.948432  0  0  0.052235  0.058892  0  3.917874  0
C  C17  1  0.28118169  0.17480976  0.30065583  1  0  0.094665  0  3.674271  0  0  0.06179  0  3.929684  0  0  0.065988  0  3.948446  0  0  0.05222  0.058877  0  3.917885  0
C  C18  1  0.62154860  0.62258496  0.19895032  1  0  0.638025  0  3.943345  0  0  0.586189  0  4.232436  0  0  0.620392  0  4.227896  0  0  0.197002  0.56263  0  4.234703  0
C  C19  1  0.37845083  0.37741487  0.80105284  1  0  0.638158  0  3.94324  0  0  0.58637  0  4.232261  0  0  0.620573  0  4.227718  0  0  0.197109  0.562817  0  4.234528  0
C  C20  1  0.30614082  0.55172289  0.96201281  1  0  -0.112271  0  3.729519  0  0  -0.141234  0  3.980189  0  0  -0.141208  0  3.99651  0  0  -0.087994  -0.141526  0  3.969796  0
C  C21  1  0.69385712  0.44827571  0.03799013  1  0  -0.112329  0  3.729564  0  0  -0.141311  0  3.980254  0  0  -0.141286  0  3.996578  0  0  -0.088026  -0.141611  0  3.969852  0
C  C22  1  0.55394729  0.55198022  0.10373831  1  0  -0.06373  0  3.738904  0  0  -0.049921  0  3.97886  0  0  -0.052847  0  3.99595  0  0  -0.012904  -0.047845  0  3.967402  0
C  C23  1  0.44605194  0.44802210  0.89626279  1  0  -0.063789  0  3.738841  0  0  -0.050004  0  3.978802  0  0  -0.05293  0  3.995889  0  0  -0.012935  -0.047958  0  3.967382  0
C  C24  1  0.35692352  0.60282546  0.06653181  1  0  -0.067109  0  3.738148  0  0  -0.053726  0  3.978162  0  0  -0.056423  0  3.994869  0  0  -0.012236  -0.051783  0  3.966654  0
C  C25  1  0.64307736  0.39717561  0.93346839  1  0  -0.067127  0  3.738089  0  0  -0.05373  0  3.978117  0  0  -0.056427  0  3.994825  0  0  -0.012256  -0.051778  0  3.966616  0
C  C26  1  0.75112974  0.11524868  0.43904808  1  0  0.097255  0  3.67599  0  0  0.063485  0  3.939399  0  0  0.067641  0  3.956666  0  0  0.052291  0.060225  0  3.929225  0
C  C27  1  0.24887129  0.88474992  0.56094993  1  0  0.097317  0  3.676028  0  0  0.063566  0  3.93943  0  0  0.067712  0  3.95671  0  0  0.052305  0.060305  0  3.92925  0
C  C28  1  0.71340591  0.96714464  0.72558797  1  0  -0.055631  0  3.648573  0  0  -0.07505  0  3.913053  0  0  -0.074836  0  3.924543  0  0  -0.057266  -0.075982  0  3.907035  0
C  C29  1  0.28659662  0.03285518  0.27441132  1  0  -0.055687  0  3.648608  0  0  -0.07508  0  3.913086  0  0  -0.074864  0  3.924574  0  0  -0.057295  -0.076013  0  3.907068  0
C  C30  1  0.73106537  0.11752081  0.59005533  1  0  -0.043778  0  3.648429  0  0  -0.066094  0  3.910525  0  0  -0.065964  0  3.923841  0  0  -0.057521  -0.066743  0  3.902881  0
C  C31  1  0.26893713  0.88247902  0.40994184  1  0  -0.043796  0  3.648491  0  0  -0.066091  0  3.910541  0  0  -0.06596  0  3.923851  0  0  -0.057515  -0.066731  0  3.902906  0
N  N32  1  0.73568509  0.82964730  0.55246804  1  0  -0.178482  0  3.274948  0  0  -0.11072  0  3.559049  0  0  -0.123599  0  3.577363  0  0  -0.22374  -0.102361  0  3.546909  0
N  N33  1  0.26431587  0.17035253  0.44753159  1  0  -0.178449  0  3.274945  0  0  -0.110674  0  3.559038  0  0  -0.123555  0  3.577354  0  0  -0.223731  -0.102317  0  3.5469  0
N  N34  1  0.75172134  0.97606298  0.42091083  1  0  -0.191731  0  3.293881  0  0  -0.129726  0  3.581904  0  0  -0.141533  0  3.600928  0  0  -0.227341  -0.121767  0  3.569024  0
N  N35  1  0.24827806  0.02393686  0.57908915  1  0  -0.19176  0  3.293908  0  0  -0.129765  0  3.581932  0  0  -0.141569  0  3.600953  0  0  -0.227331  -0.121803  0  3.569049  0
O  O36  1  0.14836835  0.64134900  0.30298498  1  0  -0.647556  0  2.080099  0  0  -0.574267  0  2.353755  0  0  -0.60432  0  2.339517  0  0  -0.322585  -0.552607  0  2.36293  0
O  O37  1  0.85163104  0.35865084  0.69701500  1  0  -0.647533  0  2.080016  0  0  -0.574238  0  2.353698  0  0  -0.604289  0  2.339459  0  0  -0.322585  -0.552579  0  2.362871  0
O  O38  1  0.60854977  0.77936068  0.14227655  1  0  -0.609598  0  2.03825  0  0  -0.538216  0  2.291933  0  0  -0.568859  0  2.282862  0  0  -0.316275  -0.516523  0  2.297668  0
O  O39  1  0.39144653  0.22063917  0.85772836  1  0  -0.609679  0  2.038248  0  0  -0.538293  0  2.291876  0  0  -0.568933  0  2.282807  0  0  -0.316318  -0.5166  0  2.297608  0
O  O40  1  0.68774764  0.51937838  0.32335753  1  0  -0.61968  0  2.047376  0  0  -0.542908  0  2.313285  0  0  -0.574222  0  2.301671  0  0  -0.326466  -0.52024  0  2.320516  0
O  O41  1  0.31225343  0.48062020  0.67664366  1  0  -0.619749  0  2.047381  0  0  -0.542985  0  2.313257  0  0  -0.574306  0  2.301656  0  0  -0.326515  -0.520316  0  2.320481  0
O  O42  1  0.09973834  0.82707766  0.05775026  1  0  -0.621619  0  2.114965  0  0  -0.542115  0  2.398931  0  0  -0.573089  0  2.384255  0  0  -0.332653  -0.519604  0  2.407455  0
O  O43  1  0.90026237  0.17292588  0.94225000  1  0  -0.621597  0  2.114897  0  0  -0.54209  0  2.398907  0  0  -0.573065  0  2.384227  0  0  -0.332639  -0.519581  0  2.407431  0
