# generated using pymatgen
data_HgH6C6Br2N2O3
_symmetry_space_group_name_H-M   'P 1'
_cell_length_a   6.81726728
_cell_length_b   11.63729554
_cell_length_c   13.69662361
_cell_angle_alpha   89.99975445
_cell_angle_beta   95.07957366
_cell_angle_gamma   90.00082157
_symmetry_Int_Tables_number   1
_chemical_formula_structural   HgH6C6Br2N2O3
_chemical_formula_sum   'Hg4 H24 C24 Br8 N8 O12'
_cell_volume   1082.34805409
_cell_formula_units_Z   4
loop_
 _symmetry_equiv_pos_site_id
 _symmetry_equiv_pos_as_xyz
  1  'x, y, z'
loop_
 _atom_site_type_symbol
 _atom_site_label
 _atom_site_symmetry_multiplicity
 _atom_site_fract_x
 _atom_site_fract_y
 _atom_site_fract_z
 _atom_site_occupancy
 _atom_site_hle17_bader_spin_density
 _atom_site_hle17_ddec_charge
 _atom_site_hle17_ddec_spin_density
 _atom_site_hle17_ddec_sum_bond_order
 _atom_site_hle17_magmom
 _atom_site_hse06_10hf_bader_spin_density
 _atom_site_hse06_10hf_ddec_charge
 _atom_site_hse06_10hf_ddec_spin_density
 _atom_site_hse06_10hf_ddec_sum_bond_order
 _atom_site_hse06_10hf_magmom
 _atom_site_hse06_bader_spin_density
 _atom_site_hse06_ddec_charge
 _atom_site_hse06_ddec_spin_density
 _atom_site_hse06_ddec_sum_bond_order
 _atom_site_hse06_magmom
 _atom_site_pbe_bader_spin_density
 _atom_site_pbe_cm5_charge
 _atom_site_pbe_ddec_charge
 _atom_site_pbe_ddec_spin_density
 _atom_site_pbe_ddec_sum_bond_order
 _atom_site_pbe_magmom
Hg  Hg0  1  0.98937057  0.15497627  0.92175008  1  0  0.675494  0  2.093899  0  0  0.546771  0  2.592107  0  0  0.597754  0  2.554735  0  0  0.41438  0.511557  0  2.617935  0
Hg  Hg1  1  0.51062865  0.65497535  0.07825054  1  0  0.675491  0  2.093733  0  0  0.54677  0  2.591902  0  0  0.59775  0  2.554539  0  0  0.41437  0.511557  0  2.61772  0
Hg  Hg2  1  0.01063067  0.84501753  0.07824558  1  0  0.675506  0  2.093538  0  0  0.546777  0  2.591676  0  0  0.597763  0  2.554314  0  0  0.414397  0.511562  0  2.617495  0
Hg  Hg3  1  0.48936083  0.34503220  0.92174539  1  0  0.67549  0  2.093626  0  0  0.546781  0  2.591773  0  0  0.597766  0  2.554404  0  0  0.414389  0.511565  0  2.617597  0
H  H4  1  0.10835677  0.48059246  0.81827379  1  0  0.11341  0  0.977168  0  0  0.115806  0  1.050975  0  0  0.120638  0  1.045996  0  0  0.107563  0.112322  0  1.054483  0
H  H5  1  0.39162966  0.98057438  0.18172882  1  0  0.113441  0  0.977019  0  0  0.115805  0  1.050879  0  0  0.120644  0  1.045903  0  0  0.107537  0.112321  0  1.054387  0
H  H6  1  0.89163569  0.51941079  0.18172372  1  0  0.113369  0  0.97716  0  0  0.115773  0  1.050989  0  0  0.120606  0  1.046006  0  0  0.107523  0.112288  0  1.054498  0
H  H7  1  0.60837603  0.01942199  0.81826846  1  0  0.113434  0  0.977049  0  0  0.115769  0  1.050935  0  0  0.120604  0  1.045955  0  0  0.107515  0.112285  0  1.05444  0
H  H8  1  0.76203954  0.35434982  0.50768232  1  0  0.137312  0  0.946256  0  0  0.138324  0  1.015929  0  0  0.142373  0  1.012566  0  0  0.12019  0.135482  0  1.018282  0
H  H9  1  0.73797940  0.85434822  0.49231599  1  0  0.13735  0  0.946271  0  0  0.138305  0  1.015982  0  0  0.142356  0  1.012612  0  0  0.120172  0.13546  0  1.018338  0
H  H10  1  0.23795729  0.64565086  0.49231316  1  0  0.137332  0  0.94621  0  0  0.138339  0  1.015877  0  0  0.14239  0  1.012507  0  0  0.120191  0.135493  0  1.018227  0
H  H11  1  0.26204836  0.14565159  0.50768139  1  0  0.13735  0  0.946278  0  0  0.138315  0  1.015991  0  0  0.142362  0  1.012634  0  0  0.120196  0.135472  0  1.018347  0
H  H12  1  0.95621876  0.21752905  0.62170449  1  0  0.120487  0  0.953183  0  0  0.120282  0  1.028353  0  0  0.125229  0  1.023111  0  0  0.125295  0.116691  0  1.032234  0
H  H13  1  0.54379995  0.71752036  0.37830608  1  0  0.120507  0  0.953203  0  0  0.120256  0  1.028454  0  0  0.125202  0  1.023213  0  0  0.125282  0.116667  0  1.032327  0
H  H14  1  0.04377661  0.78246904  0.37829167  1  0  0.120468  0  0.953151  0  0  0.120272  0  1.02834  0  0  0.125217  0  1.023098  0  0  0.125306  0.116681  0  1.032221  0
H  H15  1  0.45621771  0.28248032  0.62169895  1  0  0.120557  0  0.953113  0  0  0.120303  0  1.028365  0  0  0.125251  0  1.023123  0  0  0.125304  0.116716  0  1.03224  0
H  H16  1  0.02522272  0.66851729  0.79500951  1  0  0.119837  0  0.966465  0  0  0.137798  0  1.031024  0  0  0.140638  0  1.02959  0  0  0.081395  0.13545  0  1.032646  0
H  H17  1  0.47475866  0.16849767  0.20499134  1  0  0.119907  0  0.966422  0  0  0.137862  0  1.03097  0  0  0.140697  0  1.029545  0  0  0.081401  0.135516  0  1.032595  0
H  H18  1  0.97476235  0.33148424  0.20498699  1  0  0.119796  0  0.966399  0  0  0.137754  0  1.030985  0  0  0.140593  0  1.029551  0  0  0.081351  0.135408  0  1.032609  0
H  H19  1  0.52523696  0.83149613  0.79501432  1  0  0.119908  0  0.966393  0  0  0.137877  0  1.030937  0  0  0.140713  0  1.029508  0  0  0.081403  0.13553  0  1.03256  0
H  H20  1  0.96577923  0.72179134  0.67326298  1  0  0.133901  0  0.949503  0  0  0.151901  0  1.011985  0  0  0.153176  0  1.01146  0  0  0.096785  0.151043  0  1.012438  0
H  H21  1  0.53419818  0.22176864  0.32673871  1  0  0.134029  0  0.949454  0  0  0.151971  0  1.011974  0  0  0.153246  0  1.011448  0  0  0.09678  0.151115  0  1.012427  0
H  H22  1  0.03420159  0.27821535  0.32673920  1  0  0.133894  0  0.949594  0  0  0.15191  0  1.012051  0  0  0.153185  0  1.011525  0  0  0.096768  0.151054  0  1.012506  0
H  H23  1  0.46580325  0.77822430  0.67326425  1  0  0.133974  0  0.9495  0  0  0.151937  0  1.012009  0  0  0.153212  0  1.011482  0  0  0.096757  0.151079  0  1.012461  0
H  H24  1  0.77602703  0.68751702  0.74789049  1  0  0.130094  0  0.954958  0  0  0.14909  0  1.018909  0  0  0.151011  0  1.018118  0  0  0.091626  0.147567  0  1.019834  0
H  H25  1  0.72394069  0.18750985  0.25211172  1  0  0.130056  0  0.955151  0  0  0.149008  0  1.019125  0  0  0.150929  0  1.018335  0  0  0.091564  0.147483  0  1.020056  0
H  H26  1  0.22395665  0.31248021  0.25210888  1  0  0.130029  0  0.955015  0  0  0.14904  0  1.018962  0  0  0.150961  0  1.01817  0  0  0.091559  0.147516  0  1.019893  0
H  H27  1  0.27605038  0.81249254  0.74788866  1  0  0.130085  0  0.955067  0  0  0.149033  0  1.019056  0  0  0.150953  0  1.018266  0  0  0.091566  0.147508  0  1.019986  0
C  C28  1  0.02617013  0.45917922  0.74927018  1  0  -0.04629  0  3.533066  0  0  -0.093641  0  3.789799  0  0  -0.090704  0  3.800525  0  0  0.032742  -0.095191  0  3.782248  0
C  C29  1  0.47383935  0.95915980  0.25073485  1  0  -0.046266  0  3.532428  0  0  -0.093751  0  3.78941  0  0  -0.090799  0  3.800085  0  0  0.032687  -0.095301  0  3.781864  0
C  C30  1  0.97382815  0.54082059  0.25072463  1  0  -0.046355  0  3.532864  0  0  -0.093751  0  3.789667  0  0  -0.090799  0  3.80037  0  0  0.032669  -0.0953  0  3.782117  0
C  C31  1  0.52617238  0.04083743  0.74926850  1  0  -0.046354  0  3.532627  0  0  -0.09385  0  3.789476  0  0  -0.090901  0  3.800174  0  0  0.03267  -0.095397  0  3.781925  0
C  C32  1  0.91940455  0.54041049  0.69232675  1  0  0.138083  0  3.702168  0  0  0.154845  0  3.949643  0  0  0.158247  0  3.969561  0  0  0.020908  0.152414  0  3.936104  0
C  C33  1  0.58059631  0.04040111  0.30767953  1  0  0.138214  0  3.70201  0  0  0.155077  0  3.949391  0  0  0.158487  0  3.969302  0  0  0.020971  0.152643  0  3.935856  0
C  C34  1  0.08057619  0.45958588  0.30767251  1  0  0.138103  0  3.702424  0  0  0.154811  0  3.949939  0  0  0.15821  0  3.969856  0  0  0.020865  0.15238  0  3.936403  0
C  C35  1  0.41943599  0.95959526  0.69232240  1  0  0.138044  0  3.702463  0  0  0.155119  0  3.949473  0  0  0.158525  0  3.96938  0  0  0.020984  0.152686  0  3.935938  0
C  C36  1  0.82437518  0.50047575  0.60305357  1  0  0.025697  0  3.660657  0  0  0.004241  0  3.923931  0  0  0.000719  0  3.945198  0  0  0.081646  0.006472  0  3.909719  0
C  C37  1  0.67563047  0.00046764  0.39695015  1  0  0.025565  0  3.660585  0  0  0.004011  0  3.9239  0  0  0.000488  0  3.945168  0  0  0.081458  0.006242  0  3.909694  0
C  C38  1  0.17560986  0.49952836  0.39694147  1  0  0.025671  0  3.660974  0  0  0.004307  0  3.924103  0  0  0.000791  0  3.945372  0  0  0.081604  0.006535  0  3.909892  0
C  C39  1  0.32440328  0.99952702  0.60305111  1  0  0.025664  0  3.660697  0  0  0.00416  0  3.923803  0  0  0.00064  0  3.945066  0  0  0.081531  0.006391  0  3.909595  0
C  C40  1  0.83689343  0.38487769  0.57613443  1  0  -0.116203  0  3.753698  0  0  -0.146915  0  4.032798  0  0  -0.147394  0  4.050189  0  0  -0.075171  -0.146595  0  4.021119  0
C  C41  1  0.66313369  0.88486804  0.42386552  1  0  -0.1162  0  3.753871  0  0  -0.146755  0  4.032914  0  0  -0.147233  0  4.050305  0  0  -0.075021  -0.146431  0  4.021222  0
C  C42  1  0.16312099  0.61512470  0.42385880  1  0  -0.116358  0  3.754157  0  0  -0.147041  0  4.033224  0  0  -0.147521  0  4.050608  0  0  -0.075213  -0.14672  0  4.021544  0
C  C43  1  0.33688828  0.11513091  0.57613530  1  0  -0.116282  0  3.753987  0  0  -0.146914  0  4.033032  0  0  -0.147394  0  4.05042  0  0  -0.075215  -0.146604  0  4.021372  0
C  C44  1  0.94290735  0.30879846  0.63656206  1  0  0.013481  0  3.584234  0  0  -0.033289  0  3.858992  0  0  -0.030598  0  3.87182  0  0  0.03037  -0.034983  0  3.8506  0
C  C45  1  0.55710484  0.80878563  0.36344788  1  0  0.01358  0  3.584448  0  0  -0.033213  0  3.859178  0  0  -0.030519  0  3.871992  0  0  0.030383  -0.03491  0  3.850786  0
C  C46  1  0.05708664  0.69119878  0.36343770  1  0  0.013678  0  3.584442  0  0  -0.033181  0  3.859251  0  0  -0.030487  0  3.872087  0  0  0.030396  -0.034877  0  3.850852  0
C  C47  1  0.44292013  0.19121161  0.63655524  1  0  0.013532  0  3.584482  0  0  -0.033267  0  3.859252  0  0  -0.030575  0  3.87207  0  0  0.030454  -0.034966  0  3.850865  0
C  C48  1  0.92257300  0.66148324  0.72907931  1  0  -0.347426  0  3.707443  0  0  -0.43107  0  3.943656  0  0  -0.434109  0  3.951189  0  0  -0.247035  -0.428758  0  3.938644  0
C  C49  1  0.57741018  0.16146281  0.27092067  1  0  -0.347685  0  3.707829  0  0  -0.431187  0  3.943885  0  0  -0.434236  0  3.951432  0  0  -0.246995  -0.428871  0  3.938877  0
C  C50  1  0.07741357  0.33851572  0.27091798  1  0  -0.347308  0  3.707692  0  0  -0.430942  0  3.943797  0  0  -0.433987  0  3.951347  0  0  -0.246867  -0.428627  0  3.938789  0
C  C51  1  0.42259121  0.83853443  0.72908082  1  0  -0.347575  0  3.707864  0  0  -0.431191  0  3.943846  0  0  -0.434246  0  3.951413  0  0  -0.246991  -0.428877  0  3.938833  0
Br  Br52  1  0.44609614  0.15004329  0.99166077  1  0  -0.345706  0  1.246329  0  0  -0.285676  0  1.590522  0  0  -0.310663  0  1.570632  0  0  -0.176645  -0.268186  0  1.606705  0
Br  Br53  1  0.05386387  0.65002236  0.00832839  1  0  -0.345741  0  1.246268  0  0  -0.285704  0  1.590468  0  0  -0.310688  0  1.570567  0  0  -0.176656  -0.268217  0  1.60665  0
Br  Br54  1  0.55385088  0.84997457  0.00834306  1  0  -0.345752  0  1.246376  0  0  -0.2857  0  1.59053  0  0  -0.31069  0  1.570644  0  0  -0.176648  -0.268212  0  1.606707  0
Br  Br55  1  0.94609159  0.34995683  0.99166042  1  0  -0.345684  0  1.246414  0  0  -0.285684  0  1.590709  0  0  -0.310673  0  1.570817  0  0  -0.17664  -0.268195  0  1.606895  0
Br  Br56  1  0.00302188  0.95778619  0.85327442  1  0  -0.342697  0  1.132248  0  0  -0.280759  0  1.441307  0  0  -0.305686  0  1.423098  0  0  -0.176432  -0.263013  0  1.454195  0
Br  Br57  1  0.49698897  0.45777900  0.14672775  1  0  -0.342685  0  1.132181  0  0  -0.28077  0  1.441273  0  0  -0.305686  0  1.423042  0  0  -0.176457  -0.263025  0  1.454161  0
Br  Br58  1  0.99697543  0.04220847  0.14674007  1  0  -0.342708  0  1.132011  0  0  -0.28078  0  1.441052  0  0  -0.305707  0  1.42284  0  0  -0.176481  -0.263037  0  1.453938  0
Br  Br59  1  0.50300351  0.54223886  0.85327049  1  0  -0.3427  0  1.1321  0  0  -0.280793  0  1.441183  0  0  -0.305701  0  1.422937  0  0  -0.176448  -0.263048  0  1.45407  0
N  N60  1  0.04151649  0.34708370  0.72191533  1  0  0.310409  0  3.721696  0  0  0.364008  0  3.979456  0  0  0.36898  0  4.001962  0  0  -0.099129  0.360281  0  3.964336  0
N  N61  1  0.45849615  0.84705890  0.27809469  1  0  0.310122  0  3.721499  0  0  0.363812  0  3.979217  0  0  0.368782  0  4.00173  0  0  -0.09914  0.360085  0  3.964094  0
N  N62  1  0.95848043  0.65291783  0.27808381  1  0  0.310291  0  3.721582  0  0  0.363936  0  3.979334  0  0  0.368905  0  4.001845  0  0  -0.099118  0.360211  0  3.96421  0
N  N63  1  0.54151862  0.15293661  0.72191243  1  0  0.310304  0  3.721123  0  0  0.363971  0  3.97884  0  0  0.368939  0  4.001348  0  0  -0.09912  0.360245  0  3.96372  0
N  N64  1  0.71257871  0.57602135  0.53505697  1  0  0.506409  0  3.89603  0  0  0.531734  0  4.201228  0  0  0.554048  0  4.207425  0  0  0.050533  0.516828  0  4.196815  0
N  N65  1  0.78742588  0.07602159  0.46494492  1  0  0.506446  0  3.895722  0  0  0.531797  0  4.200929  0  0  0.554111  0  4.207125  0  0  0.050597  0.516888  0  4.196522  0
N  N66  1  0.28741676  0.42397847  0.46494285  1  0  0.506552  0  3.895678  0  0  0.531841  0  4.200884  0  0  0.554155  0  4.207076  0  0  0.050638  0.516936  0  4.196473  0
N  N67  1  0.21259157  0.92397909  0.53505207  1  0  0.506559  0  3.89565  0  0  0.531862  0  4.20086  0  0  0.554178  0  4.207053  0  0  0.050621  0.516952  0  4.196453  0
O  O68  1  0.15073924  0.27636399  0.77609198  1  0  -0.484989  0  1.786578  0  0  -0.449545  0  2.029697  0  0  -0.47724  0  2.032613  0  0  -0.218147  -0.430562  0  2.027749  0
O  O69  1  0.34927461  0.77633252  0.22392058  1  0  -0.484748  0  1.78654  0  0  -0.449339  0  2.029632  0  0  -0.477045  0  2.032574  0  0  -0.218045  -0.430356  0  2.027682  0
O  O70  1  0.84925764  0.72364184  0.22390570  1  0  -0.484899  0  1.786482  0  0  -0.449464  0  2.029587  0  0  -0.477165  0  2.032504  0  0  -0.21808  -0.430478  0  2.027634  0
O  O71  1  0.65073731  0.22365956  0.77609008  1  0  -0.484795  0  1.786336  0  0  -0.449376  0  2.029435  0  0  -0.47708  0  2.032375  0  0  -0.218048  -0.430393  0  2.027487  0
O  O72  1  0.67743620  0.54320361  0.44841063  1  0  -0.376375  0  1.74601  0  0  -0.360147  0  1.959742  0  0  -0.371331  0  1.957157  0  0  -0.139959  -0.352725  0  1.961736  0
O  O73  1  0.82258081  0.04320122  0.55159187  1  0  -0.376426  0  1.745897  0  0  -0.360198  0  1.959654  0  0  -0.371383  0  1.957069  0  0  -0.139987  -0.352757  0  1.961626  0
O  O74  1  0.32256215  0.45680221  0.55158710  1  0  -0.376462  0  1.745967  0  0  -0.360182  0  1.95969  0  0  -0.371367  0  1.957104  0  0  -0.139978  -0.352761  0  1.961684  0
O  O75  1  0.17744253  0.95680289  0.44840535  1  0  -0.376401  0  1.745694  0  0  -0.360199  0  1.959472  0  0  -0.371387  0  1.956888  0  0  -0.139955  -0.352769  0  1.961459  0
O  O76  1  0.65594803  0.67026891  0.56555199  1  0  -0.364934  0  1.772619  0  0  -0.333736  0  1.980274  0  0  -0.345073  0  1.976646  0  0  -0.120906  -0.326074  0  1.982825  0
O  O77  1  0.84404428  0.17027487  0.43445122  1  0  -0.364931  0  1.772472  0  0  -0.333762  0  1.980115  0  0  -0.345096  0  1.976486  0  0  -0.120924  -0.326102  0  1.982672  0
O  O78  1  0.34404887  0.32972919  0.43444641  1  0  -0.364949  0  1.772492  0  0  -0.333777  0  1.980153  0  0  -0.345114  0  1.976524  0  0  -0.1209  -0.326114  0  1.982708  0
O  O79  1  0.15595278  0.82973268  0.56555377  1  0  -0.365027  0  1.772641  0  0  -0.333814  0  1.980273  0  0  -0.34515  0  1.976646  0  0  -0.12094  -0.32615  0  1.982827  0
