# generated using pymatgen
data_CdH22C22(NO)4
_symmetry_space_group_name_H-M   'P 1'
_cell_length_a   5.13206968
_cell_length_b   9.82458725
_cell_length_c   19.75900000
_cell_angle_alpha   97.22746222
_cell_angle_beta   90.00000000
_cell_angle_gamma   90.00000000
_symmetry_Int_Tables_number   1
_chemical_formula_structural   CdH22C22(NO)4
_chemical_formula_sum   'Cd2 H44 C44 N8 O8'
_cell_volume   988.34223963
_cell_formula_units_Z   2
loop_
 _symmetry_equiv_pos_site_id
 _symmetry_equiv_pos_as_xyz
  1  'x, y, z'
loop_
 _atom_site_type_symbol
 _atom_site_label
 _atom_site_symmetry_multiplicity
 _atom_site_fract_x
 _atom_site_fract_y
 _atom_site_fract_z
 _atom_site_occupancy
 _atom_site_hle17_bader_spin_density
 _atom_site_hle17_ddec_charge
 _atom_site_hle17_ddec_spin_density
 _atom_site_hle17_ddec_sum_bond_order
 _atom_site_hle17_magmom
 _atom_site_hse06_10hf_bader_spin_density
 _atom_site_hse06_10hf_ddec_charge
 _atom_site_hse06_10hf_ddec_spin_density
 _atom_site_hse06_10hf_ddec_sum_bond_order
 _atom_site_hse06_10hf_magmom
 _atom_site_hse06_bader_spin_density
 _atom_site_hse06_ddec_charge
 _atom_site_hse06_ddec_spin_density
 _atom_site_hse06_ddec_sum_bond_order
 _atom_site_hse06_magmom
 _atom_site_pbe_bader_charge
 _atom_site_pbe_bader_spin_density
 _atom_site_pbe_cm5_charge
 _atom_site_pbe_ddec_charge
 _atom_site_pbe_ddec_spin_density
 _atom_site_pbe_ddec_sum_bond_order
 _atom_site_pbe_magmom
Cd  Cd0  1  0.49998931  0.50000379  0.49999869  1  0  1.15172  0  1.631159  0  0  0.971839  0  2.072671  0  0  1.026206  0  2.021563  0  1.252573  0  0.759725  0.93317  0  2.107589  0
Cd  Cd1  1  0.99999422  0.00000821  0.50000102  1  0  1.151709  0  1.63114  0  0  0.971805  0  2.072609  0  0  1.02619  0  2.021513  0  1.252573  0  0.759739  0.933131  0  2.107528  0
H  H2  1  0.87002131  0.64150241  0.43503463  1  0  0.306932  0  0.928995  0  0  0.291256  0  0.993465  0  0  0.297752  0  0.9894  0  0.467882  0  0.288411  0.286671  0  0.996309  0
H  H3  1  0.37001836  0.85850383  0.56496822  1  0  0.306989  0  0.929059  0  0  0.291265  0  0.99355  0  0  0.297785  0  0.989453  0  0.467962  0  0.288415  0.286681  0  0.996389  0
H  H4  1  0.12996316  0.35850414  0.56496472  1  0  0.307048  0  0.928954  0  0  0.291279  0  0.993491  0  0  0.297792  0  0.989405  0  0.468863  0  0.288484  0.286698  0  0.996324  0
H  H5  1  0.62997781  0.14150272  0.43503012  1  0  0.306953  0  0.929077  0  0  0.291268  0  0.993521  0  0  0.29777  0  0.989449  0  0.467948  0  0.288438  0.286682  0  0.996363  0
H  H6  1  0.79934807  0.51522460  0.37511247  1  0  0.291005  0  0.899276  0  0  0.283136  0  0.955985  0  0  0.288671  0  0.952623  0  0.407538  0  0.29388  0.27916  0  0.958475  0
H  H7  1  0.29935486  0.98478575  0.62488961  1  0  0.291129  0  0.89923  0  0  0.283184  0  0.956036  0  0  0.288712  0  0.952687  0  0.407702  0  0.293965  0.279206  0  0.958527  0
H  H8  1  0.20062276  0.48478298  0.62488542  1  0  0.291111  0  0.899259  0  0  0.283157  0  0.956077  0  0  0.288684  0  0.952729  0  0.407726  0  0.293987  0.279182  0  0.958565  0
H  H9  1  0.70064325  0.01521260  0.37511023  1  0  0.291151  0  0.899223  0  0  0.283195  0  0.956046  0  0  0.288725  0  0.952693  0  0.407689  0  0.293952  0.279219  0  0.958535  0
H  H10  1  0.96108399  0.65771639  0.14098891  1  0  0.276363  0  0.931  0  0  0.264608  0  0.985804  0  0  0.269773  0  0.984247  0  0.480128  0  0.305823  0.261058  0  0.986838  0
H  H11  1  0.46106155  0.84229395  0.85902330  1  0  0.276521  0  0.93091  0  0  0.264745  0  0.985753  0  0  0.269901  0  0.984192  0  0.480014  0  0.30595  0.261197  0  0.98679  0
H  H12  1  0.03892387  0.34228298  0.85901758  1  0  0.27634  0  0.931042  0  0  0.264595  0  0.985844  0  0  0.26976  0  0.984287  0  0.480128  0  0.305816  0.261045  0  0.986878  0
H  H13  1  0.53894241  0.15770132  0.14097787  1  0  0.276425  0  0.931087  0  0  0.264681  0  0.98586  0  0  0.269839  0  0.984297  0  0.479996  0  0.305901  0.261132  0  0.986896  0
H  H14  1  0.65000676  0.76400349  0.36054066  1  0  0.045704  0  0.926626  0  0  0.059821  0  0.985733  0  0  0.061238  0  0.98456  0  0.004154  0  0.103343  0.058746  0  0.986762  0
H  H15  1  0.15002135  0.73600788  0.63946808  1  0  0.045734  0  0.92665  0  0  0.059849  0  0.985736  0  0  0.061266  0  0.984561  0  0.004067  0  0.103402  0.058774  0  0.986766  0
H  H16  1  0.34997966  0.23600716  0.63945844  1  0  0.045701  0  0.926743  0  0  0.059763  0  0.985839  0  0  0.061181  0  0.984662  0  0.004186  0  0.103351  0.058688  0  0.98687  0
H  H17  1  0.84998456  0.26398739  0.36052550  1  0  0.045751  0  0.926524  0  0  0.059846  0  0.985662  0  0  0.061261  0  0.98449  0  0.00372  0  0.103407  0.058761  0  0.986704  0
H  H18  1  0.33228310  0.49956774  0.33314364  1  0  0.102033  0  0.945317  0  0  0.11764  0  1.007974  0  0  0.120079  0  1.005954  0  0.087845  0  0.097159  0.1158  0  1.009564  0
H  H19  1  0.83231138  0.00044426  0.66686569  1  0  0.102073  0  0.945428  0  0  0.117739  0  1.007995  0  0  0.120164  0  1.005967  0  0.087757  0  0.097271  0.115901  0  1.009597  0
H  H20  1  0.66767995  0.50044395  0.66685805  1  0  0.102192  0  0.945411  0  0  0.117797  0  1.007995  0  0  0.120231  0  1.005975  0  0.087484  0  0.097274  0.115956  0  1.009587  0
H  H21  1  0.16768868  0.99954588  0.33313466  1  0  0.102002  0  0.945453  0  0  0.117679  0  1.007989  0  0  0.120107  0  1.005972  0  0.087639  0  0.097267  0.115846  0  1.009585  0
H  H22  1  0.21392539  0.65464248  0.30971965  1  0  0.077348  0  0.946936  0  0  0.092239  0  1.014745  0  0  0.093085  0  1.014633  0  0.039257  0  0.091923  0.091507  0  1.015002  0
H  H23  1  0.71393029  0.84537607  0.69028751  1  0  0.077415  0  0.94684  0  0  0.09229  0  1.014659  0  0  0.093125  0  1.01454  0  0.039436  0  0.091952  0.091564  0  1.014919  0
H  H24  1  0.78605714  0.34537434  0.69027882  1  0  0.077526  0  0.946809  0  0  0.092418  0  1.014557  0  0  0.093265  0  1.014439  0  0.039406  0  0.091982  0.091683  0  1.014815  0
H  H25  1  0.28607172  0.15460996  0.30970904  1  0  0.077358  0  0.94693  0  0  0.092228  0  1.014739  0  0  0.09307  0  1.014626  0  0.039494  0  0.0919  0.091502  0  1.015001  0
H  H26  1  0.85622376  0.73910334  0.26161829  1  0  0.093862  0  0.969019  0  0  0.104495  0  1.0335  0  0  0.1072  0  1.031318  0  0.092564  0  0.11482  0.102471  0  1.035224  0
H  H27  1  0.35622860  0.76090495  0.73839683  1  0  0.093806  0  0.969019  0  0  0.104538  0  1.03337  0  0  0.107244  0  1.031187  0  0.092915  0  0.114853  0.102515  0  1.035093  0
H  H28  1  0.14375097  0.26090424  0.73838517  1  0  0.093854  0  0.968971  0  0  0.104536  0  1.033383  0  0  0.107243  0  1.031211  0  0.092656  0  0.114851  0.102513  0  1.035105  0
H  H29  1  0.64376951  0.23908518  0.26160554  1  0  0.093876  0  0.968969  0  0  0.10457  0  1.033368  0  0  0.107282  0  1.031165  0  0.092937  0  0.114867  0.102546  0  1.035091  0
H  H30  1  0.77485698  0.45899738  0.03394248  1  0  0.100974  0  0.950793  0  0  0.114435  0  1.007058  0  0  0.11732  0  1.006048  0  0.082725  0  0.099929  0.112361  0  1.007837  0
H  H31  1  0.27483259  0.04101461  0.96607090  1  0  0.100948  0  0.950821  0  0  0.114327  0  1.00717  0  0  0.117246  0  1.006119  0  0.082788  0  0.099906  0.112256  0  1.007945  0
H  H32  1  0.22518400  0.54099686  0.96606723  1  0  0.100927  0  0.950905  0  0  0.114354  0  1.007202  0  0  0.117271  0  1.006155  0  0.08278  0  0.099897  0.112281  0  1.007979  0
H  H33  1  0.72516552  0.95898476  0.03392699  1  0  0.100942  0  0.950806  0  0  0.114318  0  1.007165  0  0  0.117236  0  1.006115  0  0.082735  0  0.099899  0.112246  0  1.007941  0
H  H34  1  0.42372963  0.28387550  0.00998105  1  0  0.080344  0  0.983211  0  0  0.091663  0  1.048822  0  0  0.093819  0  1.048412  0  0.056391  0  0.092028  0.090162  0  1.049052  0
H  H35  1  0.92370336  0.21614060  0.99002449  1  0  0.080487  0  0.983378  0  0  0.091831  0  1.048957  0  0  0.093987  0  1.048547  0  0.055983  0  0.092106  0.090327  0  1.049183  0
H  H36  1  0.57631914  0.71611361  0.99002227  1  0  0.080471  0  0.983158  0  0  0.091725  0  1.04887  0  0  0.093879  0  1.048461  0  0.056214  0  0.092021  0.090223  0  1.049099  0
H  H37  1  0.07630255  0.78386185  0.00996853  1  0  0.080426  0  0.983217  0  0  0.091824  0  1.048756  0  0  0.093972  0  1.048354  0  0.056006  0  0.092099  0.090316  0  1.048982  0
H  H38  1  0.10874755  0.23962692  0.10030535  1  0  0.085829  0  0.979318  0  0  0.094281  0  1.045702  0  0  0.096643  0  1.04569  0  0.063103  0  0.091936  0.092477  0  1.045986  0
H  H39  1  0.60873102  0.26038200  0.89969670  1  0  0.0858  0  0.979339  0  0  0.094288  0  1.045669  0  0  0.096642  0  1.045678  0  0.062905  0  0.09197  0.092483  0  1.045954  0
H  H40  1  0.89127979  0.76036322  0.89969601  1  0  0.085844  0  0.979413  0  0  0.094311  0  1.045766  0  0  0.096666  0  1.045781  0  0.0628  0  0.091933  0.092508  0  1.04605  0
H  H41  1  0.39127099  0.73962250  0.10029594  1  0  0.085833  0  0.979411  0  0  0.094331  0  1.045717  0  0  0.096686  0  1.045721  0  0.062796  0  0.091942  0.092529  0  1.046006  0
H  H42  1  0.13713960  0.36568003  0.21655688  1  0  0.09453  0  0.949067  0  0  0.106458  0  1.009981  0  0  0.108863  0  1.009364  0  0.04526  0  0.0985  0.104732  0  1.010501  0
H  H43  1  0.63714645  0.13431965  0.78344763  1  0  0.094438  0  0.949323  0  0  0.106411  0  1.010183  0  0  0.108818  0  1.009562  0  0.045387  0  0.098496  0.104686  0  1.010702  0
H  H44  1  0.86286241  0.63431113  0.78344555  1  0  0.094447  0  0.949196  0  0  0.10642  0  1.010062  0  0  0.108828  0  1.009438  0  0.045319  0  0.098515  0.104695  0  1.010581  0
H  H45  1  0.36285945  0.86567254  0.21654576  1  0  0.094442  0  0.949443  0  0  0.10642  0  1.010306  0  0  0.108831  0  1.00967  0  0.045284  0  0.098535  0.104696  0  1.010824  0
C  C46  1  0.33260460  0.74507983  0.42749242  1  0  0.646357  0  3.869006  0  0  0.593684  0  4.174428  0  0  0.627738  0  4.166929  0  1.589802  0  0.204767  0.570585  0  4.178777  0
C  C47  1  0.83261925  0.75493872  0.57251473  1  0  0.646252  0  3.868964  0  0  0.593479  0  4.174482  0  0  0.627541  0  4.166989  0  1.589499  0  0.204725  0.57038  0  4.178827  0
C  C48  1  0.66738767  0.25493186  0.57250876  1  0  0.646049  0  3.869466  0  0  0.593345  0  4.174827  0  0  0.627397  0  4.167347  0  1.589491  0  0.204724  0.570253  0  4.179164  0
C  C49  1  0.16739056  0.24506065  0.42748214  1  0  0.646065  0  3.869083  0  0  0.593346  0  4.174557  0  0  0.627399  0  4.167073  0  1.589677  0  0.204759  0.570249  0  4.178898  0
C  C50  1  0.54183403  0.67837401  0.37820655  1  0  0.080103  0  3.625443  0  0  0.061907  0  3.868411  0  0  0.06175  0  3.881551  0  0.349291  0  -0.001793  0.061899  0  3.859505  0
C  C51  1  0.04184277  0.82163428  0.62180149  1  0  0.080153  0  3.625423  0  0  0.062004  0  3.868328  0  0  0.061837  0  3.881446  0  0.349895  0  -0.001869  0.061998  0  3.859441  0
C  C52  1  0.45813680  0.32163767  0.62179515  1  0  0.080156  0  3.625709  0  0  0.062137  0  3.86826  0  0  0.061975  0  3.881399  0  0.349543  0  -0.0018  0.062122  0  3.859362  0
C  C53  1  0.95816509  0.17836304  0.37819273  1  0  0.08026  0  3.625336  0  0  0.062063  0  3.868261  0  0  0.061911  0  3.881383  0  0.350032  0  -0.001877  0.062061  0  3.859375  0
C  C54  1  0.39495956  0.59846862  0.31777006  1  0  -0.173409  0  3.709874  0  0  -0.219506  0  3.956378  0  0  -0.220347  0  3.969386  0  -0.030558  0  -0.15978  -0.218518  0  3.947339  0
C  C55  1  0.89496836  0.90154481  0.68223779  1  0  -0.173441  0  3.709461  0  0  -0.219626  0  3.956101  0  0  -0.220402  0  3.969012  0  -0.030622  0  -0.159814  -0.218682  0  3.947124  0
C  C56  1  0.60502296  0.40154717  0.68223189  1  0  -0.17392  0  3.709975  0  0  -0.220005  0  3.956296  0  0  -0.220838  0  3.969276  0  -0.030222  0  -0.159985  -0.219033  0  3.947311  0
C  C57  1  0.10503365  0.09844841  0.31776275  1  0  -0.173296  0  3.709601  0  0  -0.219417  0  3.956187  0  0  -0.220238  0  3.969175  0  -0.03055  0  -0.159763  -0.218459  0  3.947193  0
C  C58  1  0.75055294  0.65512573  0.23306280  1  0  -0.011507  0  3.716699  0  0  -0.058443  0  3.989669  0  0  -0.05263  0  4.00657  0  0.292804  0  0.00103  -0.061984  0  3.978051  0
C  C59  1  0.25054219  0.84488051  0.76694916  1  0  -0.011463  0  3.716578  0  0  -0.058411  0  3.989529  0  0  -0.052604  0  4.006418  0  0.292494  0  0.001075  -0.061955  0  3.977905  0
C  C60  1  0.24943933  0.34487980  0.76694205  1  0  -0.01155  0  3.716354  0  0  -0.058483  0  3.989314  0  0  -0.052678  0  4.006214  0  0.29256  0  0.001017  -0.062021  0  3.977696  0
C  C61  1  0.74944618  0.15511065  0.23305075  1  0  -0.011768  0  3.716575  0  0  -0.058684  0  3.989596  0  0  -0.052877  0  4.006493  0  0.292248  0  0.000962  -0.062223  0  3.977976  0
C  C62  1  0.54313175  0.57860821  0.25205075  1  0  -0.045206  0  3.804834  0  0  -0.031516  0  4.061613  0  0  -0.03596  0  4.088267  0  0.005273  0  -0.046798  -0.028563  0  4.04326  0
C  C63  1  0.04315218  0.92139598  0.74796209  1  0  -0.045194  0  3.804865  0  0  -0.031573  0  4.061753  0  0  -0.036032  0  4.088388  0  0.005689  0  -0.04696  -0.028599  0  4.043388  0
C  C64  1  0.45685272  0.42139835  0.74795265  1  0  -0.045077  0  3.804728  0  0  -0.031366  0  4.061529  0  0  -0.035799  0  4.088158  0  0.005378  0  -0.046809  -0.028419  0  4.043177  0
C  C65  1  0.95685568  0.07858390  0.25203761  1  0  -0.045177  0  3.804924  0  0  -0.031593  0  4.061836  0  0  -0.036035  0  4.088475  0  0.006009  0  -0.046923  -0.028636  0  4.043495  0
C  C66  1  0.47529752  0.48511849  0.19247055  1  0  -0.050449  0  3.813645  0  0  -0.039242  0  4.050523  0  0  -0.041855  0  4.075718  0  -0.045388  0  -0.028731  -0.037612  0  4.033629  0
C  C67  1  0.97529658  0.01488223  0.80753706  1  0  -0.050455  0  3.813763  0  0  -0.039304  0  4.050706  0  0  -0.041912  0  4.075898  0  -0.045461  0  -0.028714  -0.03767  0  4.0338  0
C  C68  1  0.52470839  0.51488191  0.80753347  1  0  -0.050301  0  3.813454  0  0  -0.039343  0  4.050635  0  0  -0.041957  0  4.075821  0  -0.04496  0  -0.028746  -0.037702  0  4.033731  0
C  C69  1  0.02470543  0.98510381  0.19245746  1  0  -0.050466  0  3.814086  0  0  -0.039307  0  4.051056  0  0  -0.041918  0  4.076248  0  -0.045904  0  -0.028727  -0.03767  0  4.034156  0
C  C70  1  0.65232941  0.51027719  0.13931790  1  0  0.178755  0  3.813256  0  0  0.170885  0  4.057256  0  0  0.176995  0  4.078962  0  0.356318  0  0.088545  0.166759  0  4.042687  0
C  C71  1  0.15232256  0.98972905  0.86069102  1  0  0.178585  0  3.813165  0  0  0.170818  0  4.057069  0  0  0.176916  0  4.078772  0  0.356434  0  0.088512  0.166691  0  4.0425  0
C  C72  1  0.34769403  0.48972320  0.86068613  1  0  0.178545  0  3.813104  0  0  0.170781  0  4.057128  0  0  0.176891  0  4.078839  0  0.356694  0  0.088417  0.166654  0  4.042556  0
C  C73  1  0.84768335  0.01026725  0.13930718  1  0  0.178679  0  3.813221  0  0  0.170942  0  4.0571  0  0  0.177039  0  4.078811  0  0.356897  0  0.088492  0.166815  0  4.04253  0
C  C74  1  0.63861175  0.43814688  0.07372984  1  0  -0.167849  0  3.787241  0  0  -0.183693  0  4.039836  0  0  -0.187447  0  4.05984  0  -0.028335  0  -0.102668  -0.180954  0  4.026176  0
C  C75  1  0.13859711  0.06186307  0.92627936  1  0  -0.167554  0  3.787072  0  0  -0.183336  0  4.039594  0  0  -0.18711  0  4.059581  0  -0.0285  0  -0.102563  -0.180601  0  4.025934  0
C  C76  1  0.36141364  0.56184941  0.92627798  1  0  -0.167703  0  3.787327  0  0  -0.183509  0  4.039847  0  0  -0.187287  0  4.059835  0  -0.028452  0  -0.10259  -0.180771  0  4.026186  0
C  C77  1  0.86140296  0.93813528  0.07371846  1  0  -0.167549  0  3.787161  0  0  -0.183335  0  4.039668  0  0  -0.187111  0  4.059659  0  -0.028183  0  -0.10254  -0.1806  0  4.026006  0
C  C78  1  0.44165612  0.34074602  0.06080108  1  0  -0.098406  0  3.825248  0  0  -0.116595  0  4.082275  0  0  -0.117105  0  4.103018  0  -0.065267  0  -0.113484  -0.116059  0  4.067929  0
C  C79  1  0.94164154  0.15926803  0.93920534  1  0  -0.098726  0  3.825503  0  0  -0.116964  0  4.082521  0  0  -0.117479  0  4.103275  0  -0.065218  0  -0.113599  -0.11642  0  4.068171  0
C  C80  1  0.55837122  0.65924412  0.93920382  1  0  -0.098532  0  3.825548  0  0  -0.11668  0  4.082533  0  0  -0.117188  0  4.103283  0  -0.065699  0  -0.1135  -0.116142  0  4.068184  0
C  C81  1  0.05837021  0.84073750  0.06079091  1  0  -0.098652  0  3.825504  0  0  -0.11692  0  4.0825  0  0  -0.117429  0  4.10326  0  -0.066346  0  -0.113591  -0.116371  0  4.068145  0
C  C82  1  0.26299331  0.31517486  0.11218342  1  0  -0.128489  0  3.82624  0  0  -0.141094  0  4.08328  0  0  -0.143814  0  4.10315  0  -0.171161  0  -0.118059  -0.13922  0  4.069768  0
C  C83  1  0.76297873  0.18483406  0.88782066  1  0  -0.128407  0  3.826282  0  0  -0.141009  0  4.083325  0  0  -0.143732  0  4.103191  0  -0.170935  0  -0.118046  -0.139137  0  4.069812  0
C  C84  1  0.73702234  0.68481733  0.88782009  1  0  -0.12868  0  3.826652  0  0  -0.141284  0  4.083674  0  0  -0.144003  0  4.103522  0  -0.17088  0  -0.118101  -0.139413  0  4.070169  0
C  C85  1  0.23702913  0.81516223  0.11217349  1  0  -0.128517  0  3.826318  0  0  -0.141113  0  4.083381  0  0  -0.143836  0  4.103247  0  -0.170294  0  -0.118045  -0.139247  0  4.069876  0
C  C86  1  0.27849583  0.38614681  0.17781491  1  0  -0.090851  0  3.749594  0  0  -0.113008  0  4.004515  0  0  -0.112045  0  4.022452  0  0.058617  0  -0.09739  -0.113543  0  3.992273  0
C  C87  1  0.77849489  0.11386211  0.82219170  1  0  -0.090764  0  3.749856  0  0  -0.112969  0  4.004808  0  0  -0.112001  0  4.022736  0  0.05843  0  -0.097413  -0.113505  0  3.992564  0
C  C88  1  0.72151008  0.61384948  0.82218835  1  0  -0.090713  0  3.749671  0  0  -0.112843  0  4.00464  0  0  -0.111874  0  4.022569  0  0.058326  0  -0.097355  -0.113379  0  3.992393  0
C  C89  1  0.22151882  0.88613316  0.17780492  1  0  -0.090707  0  3.749783  0  0  -0.112958  0  4.004808  0  0  -0.111989  0  4.022741  0  0.058518  0  -0.097411  -0.113495  0  3.992568  0
N  N90  1  0.71839243  0.58769555  0.41050827  1  0  -0.652895  0  3.085012  0  0  -0.605256  0  3.330602  0  0  -0.625014  0  3.329709  0  -1.120012  0  -0.624438  -0.591479  0  3.331041  0
N  N91  1  0.21839337  0.91231377  0.58949629  1  0  -0.653126  0  3.084834  0  0  -0.605369  0  3.330578  0  0  -0.625139  0  3.329632  0  -1.12035  0  -0.624545  -0.591591  0  3.331022  0
N  N92  1  0.28158620  0.41231306  0.58949070  1  0  -0.653119  0  3.085083  0  0  -0.605359  0  3.330846  0  0  -0.625131  0  3.329914  0  -1.121375  0  -0.624677  -0.591581  0  3.331286  0
N  N93  1  0.78160669  0.08768868  0.41050331  1  0  -0.653223  0  3.084917  0  0  -0.605465  0  3.330612  0  0  -0.625224  0  3.329698  0  -1.120273  0  -0.624576  -0.591682  0  3.331051  0
N  N94  1  0.81590085  0.61389360  0.16596762  1  0  -0.32082  0  3.489669  0  0  -0.26061  0  3.720926  0  0  -0.278109  0  3.740134  0  -1.27601  0  -0.399923  -0.248807  0  3.70771  0
N  N95  1  0.31591153  0.88610341  0.83404882  1  0  -0.320956  0  3.489102  0  0  -0.260756  0  3.720276  0  0  -0.278257  0  3.739522  0  -1.275917  0  -0.400029  -0.248954  0  3.707068  0
N  N96  1  0.18409532  0.38610680  0.83404147  1  0  -0.320708  0  3.489119  0  0  -0.260551  0  3.720378  0  0  -0.278066  0  3.739608  0  -1.276082  0  -0.399788  -0.248748  0  3.707163  0
N  N97  1  0.68408463  0.11388365  0.16595133  1  0  -0.320777  0  3.48907  0  0  -0.260609  0  3.720281  0  0  -0.278104  0  3.739511  0  -1.275765  0  -0.399912  -0.248807  0  3.707071  0
O  O98  1  0.23949012  0.67884495  0.47334305  1  0  -0.647512  0  2.046652  0  0  -0.570858  0  2.287698  0  0  -0.599698  0  2.277428  0  -1.178989  0  -0.324153  -0.550671  0  2.293832  0
O  O99  1  0.73949308  0.82115822  0.52666214  1  0  -0.647367  0  2.047108  0  0  -0.570555  0  2.287997  0  0  -0.599463  0  2.27783  0  -1.179296  0  -0.324027  -0.550369  0  2.294124  0
O  O100  1  0.76048851  0.32116263  0.52665535  1  0  -0.647336  0  2.046867  0  0  -0.570653  0  2.287863  0  0  -0.599478  0  2.277562  0  -1.179034  0  -0.32412  -0.550471  0  2.29399  0
O  O101  1  0.26049919  0.17885244  0.47333544  1  0  -0.647279  0  2.047175  0  0  -0.570543  0  2.288128  0  0  -0.599424  0  2.277928  0  -1.179173  0  -0.324085  -0.550361  0  2.29426  0
O  O102  1  0.25138981  0.86121043  0.41500392  1  0  -0.648577  0  1.983546  0  0  -0.592662  0  2.24095  0  0  -0.62004  0  2.229634  0  -1.189479  0  -0.334765  -0.573619  0  2.248257  0
O  O103  1  0.75138497  0.63878657  0.58500442  1  0  -0.648725  0  1.982757  0  0  -0.592733  0  2.240103  0  0  -0.620115  0  2.228785  0  -1.189308  0  -0.334826  -0.573684  0  2.247408  0
O  O104  1  0.74861026  0.13880741  0.58499968  1  0  -0.648447  0  1.983639  0  0  -0.592524  0  2.24104  0  0  -0.619903  0  2.22973  0  -1.189218  0  -0.33474  -0.573454  0  2.248285  0
O  O105  1  0.24861705  0.36121177  0.41498834  1  0  -0.648625  0  1.982718  0  0  -0.59262  0  2.240023  0  0  -0.620006  0  2.228724  0  -1.189417  0  -0.3348  -0.573572  0  2.247321  0
