# generated using pymatgen
data_ZnH22C26(NO3)2
_symmetry_space_group_name_H-M   'P 1'
_cell_length_a   9.07574253
_cell_length_b   9.95173512
_cell_length_c   14.73958011
_cell_angle_alpha   70.19710781
_cell_angle_beta   81.39308302
_cell_angle_gamma   63.77454614
_symmetry_Int_Tables_number   1
_chemical_formula_structural   ZnH22C26(NO3)2
_chemical_formula_sum   'Zn2 H44 C52 N4 O12'
_cell_volume   1123.60926730
_cell_formula_units_Z   2
loop_
 _symmetry_equiv_pos_site_id
 _symmetry_equiv_pos_as_xyz
  1  'x, y, z'
loop_
 _atom_site_type_symbol
 _atom_site_label
 _atom_site_symmetry_multiplicity
 _atom_site_fract_x
 _atom_site_fract_y
 _atom_site_fract_z
 _atom_site_occupancy
 _atom_site_hle17_bader_spin_density
 _atom_site_hle17_ddec_charge
 _atom_site_hle17_ddec_spin_density
 _atom_site_hle17_ddec_sum_bond_order
 _atom_site_hle17_magmom
 _atom_site_hse06_10hf_bader_spin_density
 _atom_site_hse06_10hf_ddec_charge
 _atom_site_hse06_10hf_ddec_spin_density
 _atom_site_hse06_10hf_ddec_sum_bond_order
 _atom_site_hse06_10hf_magmom
 _atom_site_hse06_bader_spin_density
 _atom_site_hse06_ddec_charge
 _atom_site_hse06_ddec_spin_density
 _atom_site_hse06_ddec_sum_bond_order
 _atom_site_hse06_magmom
 _atom_site_pbe_bader_spin_density
 _atom_site_pbe_cm5_charge
 _atom_site_pbe_ddec_charge
 _atom_site_pbe_ddec_spin_density
 _atom_site_pbe_ddec_sum_bond_order
 _atom_site_pbe_magmom
Zn  Zn0  1  0.74994822  0.22357083  0.55242171  1  0  1.066253  0  1.793528  0  0  0.888259  0  2.233959  0  0  0.933516  0  2.182266  0  0  0.679268  0.85661  0  2.269505  0
Zn  Zn1  1  0.25005048  0.77642864  0.44758016  1  0  1.066197  0  1.793597  0  0  0.888219  0  2.234023  0  0  0.93347  0  2.182333  0  0  0.679264  0.856569  0  2.269571  0
H  H2  1  0.88338867  0.42914532  0.39008394  1  0  0.085017  0  0.95503  0  0  0.088379  0  1.027457  0  0  0.09103  0  1.024929  0  0  0.116011  0.086619  0  1.028913  0
H  H3  1  0.61702750  0.18005736  0.39016817  1  0  0.085104  0  0.955282  0  0  0.088338  0  1.027741  0  0  0.091097  0  1.025072  0  0  0.116087  0.086537  0  1.029213  0
H  H4  1  0.11661017  0.57085933  0.60991506  1  0  0.085044  0  0.955019  0  0  0.088393  0  1.027445  0  0  0.091042  0  1.024921  0  0  0.116023  0.086614  0  1.028921  0
H  H5  1  0.38296874  0.81994825  0.60983344  1  0  0.08514  0  0.955257  0  0  0.088373  0  1.027721  0  0  0.091131  0  1.025055  0  0  0.116092  0.086573  0  1.029189  0
H  H6  1  0.47781431  0.20267603  0.57998204  1  0  0.411638  0  0.897088  0  0  0.378706  0  0.965412  0  0  0.389782  0  0.94948  0  0  0.287392  0.371222  0  0.976072  0
H  H7  1  0.02204631  0.21674083  0.58000778  1  0  0.410942  0  0.898204  0  0  0.378392  0  0.965894  0  0  0.389465  0  0.949952  0  0  0.287129  0.370923  0  0.976543  0
H  H8  1  0.52218650  0.79732141  0.42001948  1  0  0.41161  0  0.897135  0  0  0.378711  0  0.965423  0  0  0.389791  0  0.949485  0  0  0.287389  0.371227  0  0.976082  0
H  H9  1  0.97795387  0.78325510  0.41999410  1  0  0.410911  0  0.898244  0  0  0.378361  0  0.96594  0  0  0.389434  0  0.949998  0  0  0.287107  0.370891  0  0.976589  0
H  H10  1  0.89314771  0.51959431  0.21318757  1  0  0.104644  0  0.967972  0  0  0.113995  0  1.030997  0  0  0.116887  0  1.03122  0  0  0.105586  0.112274  0  1.030454  0
H  H11  1  0.60707240  0.26713638  0.21332449  1  0  0.105992  0  0.967473  0  0  0.115629  0  1.029857  0  0  0.118527  0  1.030066  0  0  0.106266  0.113908  0  1.0293  0
H  H12  1  0.10684824  0.48040840  0.78681228  1  0  0.104677  0  0.967955  0  0  0.114025  0  1.030973  0  0  0.116917  0  1.031193  0  0  0.1056  0.112302  0  1.030435  0
H  H13  1  0.39292243  0.73286441  0.78667730  1  0  0.105983  0  0.96752  0  0  0.115631  0  1.029882  0  0  0.118536  0  1.03008  0  0  0.106276  0.113904  0  1.029339  0
H  H14  1  0.68824911  0.27687921  0.07345023  1  0  0.086959  0  0.982863  0  0  0.096577  0  1.048262  0  0  0.098747  0  1.048657  0  0  0.097697  0.095196  0  1.048256  0
H  H15  1  0.81183750  0.64995060  0.07306080  1  0  0.087969  0  0.981727  0  0  0.097385  0  1.047087  0  0  0.099552  0  1.047491  0  0  0.098204  0.096008  0  1.047075  0
H  H16  1  0.31175008  0.72311998  0.92655073  1  0  0.086948  0  0.982883  0  0  0.096566  0  1.04828  0  0  0.098737  0  1.048676  0  0  0.0977  0.095186  0  1.048273  0
H  H17  1  0.18815747  0.35005469  0.92693881  1  0  0.087978  0  0.981751  0  0  0.097379  0  1.047124  0  0  0.099546  0  1.047531  0  0  0.09821  0.096002  0  1.047111  0
H  H18  1  0.68740712  0.36745742  0.89628302  1  0  0.080755  0  0.986618  0  0  0.091745  0  1.047816  0  0  0.093683  0  1.048597  0  0  0.095265  0.090504  0  1.047527  0
H  H19  1  0.81316069  0.73620700  0.89588825  1  0  0.080778  0  0.986701  0  0  0.091528  0  1.048083  0  0  0.093451  0  1.048866  0  0  0.095399  0.09031  0  1.047758  0
H  H20  1  0.31259369  0.63254070  0.10371782  1  0  0.080716  0  0.98664  0  0  0.091719  0  1.047828  0  0  0.093657  0  1.048609  0  0  0.095248  0.090478  0  1.047539  0
H  H21  1  0.18683787  0.26379272  0.10411104  1  0  0.080818  0  0.986631  0  0  0.091574  0  1.048011  0  0  0.093497  0  1.048793  0  0  0.095413  0.090355  0  1.047689  0
H  H22  1  0.75056321  0.59702558  0.80531717  1  0  0.08654  0  0.959521  0  0  0.096695  0  1.021389  0  0  0.098718  0  1.021338  0  0  0.099136  0.095337  0  1.020899  0
H  H23  1  0.24943647  0.40297266  0.19468357  1  0  0.086526  0  0.959434  0  0  0.096698  0  1.021296  0  0  0.098715  0  1.021252  0  0  0.099122  0.09534  0  1.020808  0
H  H24  1  0.52832435  0.33309608  0.71419141  1  0  0.087327  0  0.949498  0  0  0.094368  0  1.014819  0  0  0.096635  0  1.013473  0  0  0.115227  0.09251  0  1.01646  0
H  H25  1  0.97142514  0.95306287  0.71424626  1  0  0.088194  0  0.949709  0  0  0.094956  0  1.015221  0  0  0.097188  0  1.013934  0  0  0.115322  0.093049  0  1.016949  0
H  H26  1  0.47166662  0.66690536  0.28581100  1  0  0.087386  0  0.949499  0  0  0.094417  0  1.01483  0  0  0.096684  0  1.013481  0  0  0.115253  0.092559  0  1.01647  0
H  H27  1  0.02857046  0.04694258  0.28575435  1  0  0.08819  0  0.949669  0  0  0.094921  0  1.015212  0  0  0.097153  0  1.013925  0  0  0.115324  0.093018  0  1.016936  0
H  H28  1  0.51742914  0.25286569  0.89290312  1  0  0.098975  0  0.977165  0  0  0.109128  0  1.039797  0  0  0.111787  0  1.039925  0  0  0.103184  0.106774  0  1.040747  0
H  H29  1  0.98273262  0.85437670  0.89295920  1  0  0.09829  0  0.977714  0  0  0.108419  0  1.040336  0  0  0.111018  0  1.040534  0  0  0.102915  0.106066  0  1.041285  0
H  H30  1  0.48256470  0.74713701  0.10709912  1  0  0.098949  0  0.977213  0  0  0.109092  0  1.039858  0  0  0.11175  0  1.039987  0  0  0.103159  0.106743  0  1.040809  0
H  H31  1  0.01726221  0.14562613  0.10704055  1  0  0.098278  0  0.977658  0  0  0.108388  0  1.040311  0  0  0.110982  0  1.040515  0  0  0.102921  0.106034  0  1.041259  0
H  H32  1  0.49004378  0.13169220  0.03155122  1  0  0.081337  0  0.996041  0  0  0.09001  0  1.064798  0  0  0.092119  0  1.065113  0  0  0.093974  0.089329  0  1.063291  0
H  H33  1  0.01003570  0.83679480  0.03150789  1  0  0.080654  0  0.996364  0  0  0.089125  0  1.06532  0  0  0.091227  0  1.065638  0  0  0.093456  0.088439  0  1.063825  0
H  H34  1  0.50995731  0.86830747  0.96845274  1  0  0.081319  0  0.996031  0  0  0.090012  0  1.064774  0  0  0.09212  0  1.06509  0  0  0.093963  0.089327  0  1.063271  0
H  H35  1  0.98996321  0.16320353  0.96848928  1  0  0.080646  0  0.996389  0  0  0.089091  0  1.06537  0  0  0.091193  0  1.065688  0  0  0.093438  0.088406  0  1.063875  0
H  H36  1  0.49254523  0.04395526  0.20980369  1  0  0.094707  0  0.960153  0  0  0.103895  0  1.021386  0  0  0.106324  0  1.021235  0  0  0.098345  0.101969  0  1.021996  0
H  H37  1  0.00781947  0.74593039  0.20975904  1  0  0.093893  0  0.961112  0  0  0.103226  0  1.022196  0  0  0.105647  0  1.022075  0  0  0.098648  0.101312  0  1.02278  0
H  H38  1  0.50746198  0.95604352  0.79019985  1  0  0.094719  0  0.960137  0  0  0.103922  0  1.021369  0  0  0.106345  0  1.021226  0  0  0.098343  0.101996  0  1.021972  0
H  H39  1  0.99218732  0.25406641  0.79023949  1  0  0.093964  0  0.961116  0  0  0.103231  0  1.022258  0  0  0.105699  0  1.02208  0  0  0.098641  0.10132  0  1.022839  0
H  H40  1  0.75025100  0.85011582  0.29928268  1  0  0.109687  0  0.941691  0  0  0.121854  0  0.996986  0  0  0.125051  0  0.994831  0  0  0.108047  0.119645  0  0.99811  0
H  H41  1  0.24975606  0.14988320  0.70071827  1  0  0.109669  0  0.941763  0  0  0.121829  0  0.99707  0  0  0.125027  0  0.994916  0  0  0.108043  0.119618  0  0.998194  0
H  H42  1  0.41523508  0.38825923  0.51490616  1  0  0.424268  0  0.881784  0  0  0.392065  0  0.946751  0  0  0.402803  0  0.931448  0  0  0.286367  0.384537  0  0.95743  0
H  H43  1  0.08450913  0.09679387  0.51473131  1  0  0.424441  0  0.881338  0  0  0.392675  0  0.945631  0  0  0.403366  0  0.930413  0  0  0.286877  0.385157  0  0.956288  0
H  H44  1  0.58476460  0.61173901  0.48509458  1  0  0.4243  0  0.881748  0  0  0.392088  0  0.946729  0  0  0.402827  0  0.931424  0  0  0.286376  0.38456  0  0.957408  0
H  H45  1  0.91548992  0.90320557  0.48526707  1  0  0.424475  0  0.88131  0  0  0.392682  0  0.945642  0  0  0.403375  0  0.930421  0  0  0.286869  0.385164  0  0.956299  0
C  C46  1  0.82467566  0.39414354  0.34848379  1  0  0.144656  0  3.696784  0  0  0.113487  0  3.948975  0  0  0.12132  0  3.966253  0  0  0.051898  0.108707  0  3.93674  0
C  C47  1  0.67573645  0.25677353  0.34855538  1  0  0.144321  0  3.696145  0  0  0.113413  0  3.948349  0  0  0.12116  0  3.965584  0  0  0.050854  0.108683  0  3.936144  0
C  C48  1  0.17532529  0.60585705  0.65151691  1  0  0.144601  0  3.696841  0  0  0.113458  0  3.948978  0  0  0.121291  0  3.966258  0  0  0.05184  0.108693  0  3.936749  0
C  C49  1  0.32425915  0.74323192  0.65144524  1  0  0.144333  0  3.696033  0  0  0.113391  0  3.948284  0  0  0.121137  0  3.965517  0  0  0.050855  0.108661  0  3.936078  0
C  C50  1  0.82832108  0.44587429  0.24832595  1  0  -0.16589  0  3.692635  0  0  -0.179867  0  3.935796  0  0  -0.188571  0  3.957435  0  0  -0.083387  -0.174907  0  3.92193  0
C  C51  1  0.67200658  0.30556398  0.24840336  1  0  -0.168381  0  3.692804  0  0  -0.182607  0  3.935945  0  0  -0.191352  0  3.957648  0  0  -0.084153  -0.177591  0  3.922018  0
C  C52  1  0.17167698  0.55412570  0.75167424  1  0  -0.165931  0  3.69263  0  0  -0.179929  0  3.935785  0  0  -0.188633  0  3.957419  0  0  -0.083378  -0.174969  0  3.921914  0
C  C53  1  0.32798937  0.69443804  0.75159718  1  0  -0.168438  0  3.692803  0  0  -0.182668  0  3.93594  0  0  -0.191417  0  3.957634  0  0  -0.08422  -0.177652  0  3.92201  0
C  C54  1  0.75011266  0.40261266  0.19477053  1  0  0.101321  0  3.75939  0  0  0.109299  0  3.991025  0  0  0.11541  0  4.01238  0  0  0.010775  0.105368  0  3.978225  0
C  C55  1  0.24988392  0.59739020  0.80523033  1  0  0.10126  0  3.759419  0  0  0.109277  0  3.990998  0  0  0.115388  0  4.012354  0  0  0.010738  0.105346  0  3.978196  0
C  C56  1  0.75013472  0.45604254  0.08794260  1  0  0.024183  0  3.7796  0  0  0.042526  0  4.009645  0  0  0.040749  0  4.032374  0  0  -0.011979  0.044539  0  3.994679  0
C  C57  1  0.24986376  0.54396417  0.91205785  1  0  0.024225  0  3.779617  0  0  0.04257  0  4.009629  0  0  0.040791  0  4.03236  0  0  -0.011953  0.044583  0  3.994658  0
C  C58  1  0.71469668  0.37875997  0.03568852  1  0  -0.107367  0  3.727912  0  0  -0.126325  0  3.972785  0  0  -0.127956  0  3.993076  0  0  -0.088723  -0.126083  0  3.959418  0
C  C59  1  0.78563589  0.58561538  0.03545920  1  0  -0.108235  0  3.730691  0  0  -0.127142  0  3.975787  0  0  -0.128781  0  3.996103  0  0  -0.088537  -0.126908  0  3.962424  0
C  C60  1  0.28530153  0.62124249  0.96431153  1  0  -0.107346  0  3.727997  0  0  -0.126317  0  3.97288  0  0  -0.127946  0  3.993172  0  0  -0.08873  -0.126073  0  3.95951  0
C  C61  1  0.21435844  0.41438772  0.96454146  1  0  -0.108258  0  3.730649  0  0  -0.127165  0  3.975748  0  0  -0.128804  0  3.996065  0  0  -0.088553  -0.126927  0  3.962379  0
C  C62  1  0.71476024  0.42931129  0.93514548  1  0  -0.065483  0  3.778265  0  0  -0.075938  0  4.024048  0  0  -0.078238  0  4.046111  0  0  -0.092007  -0.074631  0  4.007878  0
C  C63  1  0.78588087  0.63539270  0.93491775  1  0  -0.065164  0  3.779153  0  0  -0.07531  0  4.025054  0  0  -0.077584  0  4.047125  0  0  -0.092163  -0.074032  0  4.008893  0
C  C64  1  0.28524169  0.57068671  0.06485546  1  0  -0.065408  0  3.778279  0  0  -0.075878  0  4.024069  0  0  -0.078176  0  4.046127  0  0  -0.091966  -0.074572  0  4.007899  0
C  C65  1  0.21411782  0.36460948  0.06508139  1  0  -0.065204  0  3.779203  0  0  -0.075344  0  4.02509  0  0  -0.077618  0  4.047159  0  0  -0.092177  -0.074066  0  4.008931  0
C  C66  1  0.75050197  0.55771082  0.88404338  1  0  -0.067747  0  3.75553  0  0  -0.081634  0  4.000787  0  0  -0.083435  0  4.022261  0  0  -0.087978  -0.077645  0  3.982798  0
C  C67  1  0.24949610  0.44229053  0.11595545  1  0  -0.067757  0  3.755503  0  0  -0.081667  0  4.000772  0  0  -0.083464  0  4.022249  0  0  -0.087974  -0.07768  0  3.982786  0
C  C68  1  0.62650456  0.22822671  0.75737089  1  0  0.13768  0  3.702783  0  0  0.10579  0  3.952457  0  0  0.113112  0  3.970294  0  0  0.047438  0.100716  0  3.94047  0
C  C69  1  0.87335566  0.01476873  0.75742095  1  0  0.135468  0  3.703666  0  0  0.103766  0  3.953175  0  0  0.111094  0  3.970977  0  0  0.046818  0.098721  0  3.941116  0
C  C70  1  0.37348816  0.77177544  0.24263193  1  0  0.137583  0  3.70282  0  0  0.105708  0  3.952532  0  0  0.113029  0  3.970373  0  0  0.047379  0.100635  0  3.940545  0
C  C71  1  0.12664029  0.98523330  0.24257958  1  0  0.135428  0  3.703483  0  0  0.103778  0  3.953014  0  0  0.111106  0  3.970814  0  0  0.046818  0.098734  0  3.940954  0
C  C72  1  0.62170921  0.18133088  0.85738612  1  0  -0.176113  0  3.729744  0  0  -0.189774  0  3.976629  0  0  -0.197622  0  3.997208  0  0  -0.087936  -0.184434  0  3.962426  0
C  C73  1  0.87836090  0.96152303  0.85743475  1  0  -0.17363  0  3.73083  0  0  -0.186968  0  3.977183  0  0  -0.194756  0  3.997826  0  0  -0.08685  -0.181598  0  3.962913  0
C  C74  1  0.37828612  0.81866761  0.14261682  1  0  -0.176115  0  3.729745  0  0  -0.189735  0  3.976631  0  0  -0.197583  0  3.997211  0  0  -0.087895  -0.184403  0  3.962433  0
C  C75  1  0.12163568  0.03848187  0.14256406  1  0  -0.173685  0  3.730664  0  0  -0.186997  0  3.977048  0  0  -0.194779  0  3.99769  0  0  -0.086887  -0.181627  0  3.962777  0
C  C76  1  0.75005088  0.04460599  0.91094758  1  0  0.1062  0  3.757815  0  0  0.113185  0  3.990576  0  0  0.119153  0  4.01137  0  0  0.011813  0.109245  0  3.975539  0
C  C77  1  0.24994894  0.95539404  0.08905371  1  0  0.106279  0  3.757666  0  0  0.113215  0  3.990509  0  0  0.11918  0  4.011302  0  0  0.011825  0.109276  0  3.97547  0
C  C78  1  0.75004466  0.99141448  0.01735143  1  0  0.02084  0  3.787504  0  0  0.040518  0  4.013767  0  0  0.038393  0  4.037091  0  0  -0.017219  0.04261  0  3.999076  0
C  C79  1  0.24995292  0.00858714  0.98264830  1  0  0.020868  0  3.787469  0  0  0.040544  0  4.013756  0  0  0.03842  0  4.037078  0  0  -0.017202  0.042635  0  3.999065  0
C  C80  1  0.60503198  0.04866235  0.06955023  1  0  -0.115802  0  3.752386  0  0  -0.134469  0  3.997357  0  0  -0.136497  0  4.019131  0  0  -0.093527  -0.133231  0  3.982144  0
C  C81  1  0.89511690  0.88179394  0.06953861  1  0  -0.115257  0  3.751237  0  0  -0.13379  0  3.996456  0  0  -0.135811  0  4.018216  0  0  -0.093184  -0.132565  0  3.981277  0
C  C82  1  0.39496412  0.95134147  0.93045084  1  0  -0.115836  0  3.752555  0  0  -0.134496  0  3.997528  0  0  -0.136523  0  4.019301  0  0  -0.093549  -0.133258  0  3.982315  0
C  C83  1  0.10488229  0.11820796  0.93045964  1  0  -0.115199  0  3.751225  0  0  -0.133695  0  3.996406  0  0  -0.135717  0  4.018179  0  0  -0.093121  -0.132471  0  3.981229  0
C  C84  1  0.60537294  0.99888837  0.16999944  1  0  -0.075313  0  3.783258  0  0  -0.08615  0  4.033496  0  0  -0.088886  0  4.056151  0  0  -0.093399  -0.085608  0  4.018467  0
C  C85  1  0.89494401  0.83089648  0.16997371  1  0  -0.074285  0  3.78288  0  0  -0.085249  0  4.033219  0  0  -0.087979  0  4.055865  0  0  -0.093541  -0.08472  0  4.018207  0
C  C86  1  0.39463153  0.00111228  0.83000345  1  0  -0.075377  0  3.783192  0  0  -0.086249  0  4.033479  0  0  -0.088979  0  4.056133  0  0  -0.093407  -0.085701  0  4.01844  0
C  C87  1  0.10505729  0.16910271  0.83002487  1  0  -0.074404  0  3.783016  0  0  -0.085308  0  4.033341  0  0  -0.088076  0  4.05597  0  0  -0.093595  -0.084783  0  4.018331  0
C  C88  1  0.75019306  0.88945885  0.22081124  1  0  -0.045738  0  3.709858  0  0  -0.062751  0  3.956385  0  0  -0.064074  0  3.977269  0  0  -0.080998  -0.060655  0  3.941274  0
C  C89  1  0.24981077  0.11054368  0.77918861  1  0  -0.045663  0  3.709815  0  0  -0.062672  0  3.956346  0  0  -0.064  0  3.977244  0  0  -0.080971  -0.060576  0  3.941232  0
C  C90  1  0.66609768  0.93499611  0.58766569  1  0  0.719985  0  3.971461  0  0  0.662052  0  4.270882  0  0  0.698892  0  4.256619  0  0  0.220808  0.636471  0  4.281102  0
C  C91  1  0.83421520  0.47652963  0.58746990  1  0  0.717099  0  3.975504  0  0  0.659103  0  4.274815  0  0  0.695982  0  4.260563  0  0  0.21944  0.633516  0  4.285046  0
C  C92  1  0.33390559  0.06500129  0.41232997  1  0  0.719794  0  3.971839  0  0  0.661896  0  4.271225  0  0  0.698736  0  4.256964  0  0  0.220738  0.636316  0  4.281445  0
C  C93  1  0.16580354  0.52346114  0.41252739  1  0  0.717276  0  3.975256  0  0  0.659315  0  4.274506  0  0  0.696194  0  4.260256  0  0  0.219538  0.633728  0  4.284738  0
C  C94  1  0.72477831  0.77035000  0.59389635  1  0  -0.144732  0  3.704279  0  0  -0.143528  0  3.967618  0  0  -0.145587  0  3.982713  0  0  -0.032898  -0.14197  0  3.956771  0
C  C95  1  0.77558179  0.63481196  0.59383894  1  0  -0.144779  0  3.705458  0  0  -0.143839  0  3.969097  0  0  -0.145857  0  3.984155  0  0  -0.03284  -0.142289  0  3.958268  0
C  C96  1  0.27523249  0.22963961  0.40609178  1  0  -0.144673  0  3.704215  0  0  -0.143471  0  3.967538  0  0  -0.145533  0  3.982635  0  0  -0.03288  -0.141914  0  3.956692  0
C  C97  1  0.22443484  0.36518965  0.40614986  1  0  -0.144784  0  3.705231  0  0  -0.143867  0  3.968891  0  0  -0.145881  0  3.983944  0  0  -0.032871  -0.14232  0  3.958069  0
N  N98  1  0.75018133  0.30036202  0.39864626  1  0  -0.334595  0  3.258058  0  0  -0.254751  0  3.521926  0  0  -0.273343  0  3.536998  0  0  -0.323105  -0.24199  0  3.51098  0
N  N99  1  0.24981687  0.69963977  0.60135447  1  0  -0.334519  0  3.258018  0  0  -0.254639  0  3.521829  0  0  -0.273231  0  3.536906  0  0  -0.323023  -0.241876  0  3.510875  0
N  N100  1  0.74987015  0.14639004  0.70758829  1  0  -0.32203  0  3.261631  0  0  -0.242691  0  3.521292  0  0  -0.261541  0  3.539171  0  0  -0.324992  -0.229229  0  3.509231  0
N  N101  1  0.25012482  0.85361390  0.29241268  1  0  -0.321897  0  3.261552  0  0  -0.242618  0  3.521256  0  0  -0.261468  0  3.539138  0  0  -0.324961  -0.229154  0  3.509194  0
O  O102  1  0.49364277  0.30087765  0.56594532  1  0  -0.841274  0  1.945414  0  0  -0.780285  0  2.155511  0  0  -0.802089  0  2.121821  0  0  -0.58214  -0.764983  0  2.178499  0
O  O103  1  0.00625727  0.13263594  0.56590102  1  0  -0.840996  0  1.946409  0  0  -0.780236  0  2.155622  0  0  -0.80192  0  2.121822  0  0  -0.582233  -0.765  0  2.178732  0
O  O104  1  0.50635740  0.69911964  0.43405521  1  0  -0.841285  0  1.945447  0  0  -0.780329  0  2.155488  0  0  -0.802128  0  2.121776  0  0  -0.582148  -0.765026  0  2.178476  0
O  O105  1  0.99374228  0.86736119  0.43409851  1  0  -0.840978  0  1.946437  0  0  -0.780194  0  2.155649  0  0  -0.80188  0  2.121849  0  0  -0.582196  -0.764961  0  2.178768  0
O  O106  1  0.77154538  0.99369953  0.55465350  1  0  -0.646633  0  2.051669  0  0  -0.569867  0  2.291185  0  0  -0.598553  0  2.278197  0  0  -0.300933  -0.54998  0  2.299867  0
O  O107  1  0.72877376  0.45125337  0.55420710  1  0  -0.64578  0  2.05329  0  0  -0.568329  0  2.292209  0  0  -0.59714  0  2.27931  0  0  -0.300107  -0.548445  0  2.300845  0
O  O108  1  0.22846127  0.00629683  0.44534312  1  0  -0.646558  0  2.051769  0  0  -0.569809  0  2.291213  0  0  -0.598492  0  2.278223  0  0  -0.300917  -0.549926  0  2.299899  0
O  O109  1  0.27123394  0.54874513  0.44579553  1  0  -0.64585  0  2.053351  0  0  -0.568411  0  2.292222  0  0  -0.597207  0  2.279297  0  0  -0.300133  -0.548526  0  2.30086  0
O  O110  1  0.52113886  0.00538107  0.61340827  1  0  -0.591287  0  1.911379  0  0  -0.539254  0  2.125695  0  0  -0.563398  0  2.115886  0  0  -0.295661  -0.522927  0  2.132505  0
O  O111  1  0.97909231  0.38013907  0.61332244  1  0  -0.589616  0  1.913565  0  0  -0.537735  0  2.127821  0  0  -0.561923  0  2.118106  0  0  -0.295153  -0.521383  0  2.13454  0
O  O112  1  0.47886652  0.99460821  0.38659316  1  0  -0.59123  0  1.911487  0  0  -0.539188  0  2.125757  0  0  -0.563336  0  2.11595  0  0  -0.295618  -0.52286  0  2.132566  0
O  O113  1  0.02092166  0.61984591  0.38667611  1  0  -0.58969  0  1.913299  0  0  -0.537827  0  2.127551  0  0  -0.562014  0  2.117833  0  0  -0.295185  -0.521476  0  2.134273  0
