# generated using pymatgen
data_NiH26C24N6O5
_symmetry_space_group_name_H-M   'P 1'
_cell_length_a   8.67522628
_cell_length_b   10.28472750
_cell_length_c   14.11839132
_cell_angle_alpha   90.71317086
_cell_angle_beta   98.34728542
_cell_angle_gamma   95.19939711
_symmetry_Int_Tables_number   1
_chemical_formula_structural   NiH26C24N6O5
_chemical_formula_sum   'Ni2 H52 C48 N12 O10'
_cell_volume   1240.78399109
_cell_formula_units_Z   2
loop_
 _symmetry_equiv_pos_site_id
 _symmetry_equiv_pos_as_xyz
  1  'x, y, z'
loop_
 _atom_site_type_symbol
 _atom_site_label
 _atom_site_symmetry_multiplicity
 _atom_site_fract_x
 _atom_site_fract_y
 _atom_site_fract_z
 _atom_site_occupancy
 _atom_site_pbe_cm5_charge
 _atom_site_pbe_ddec_charge
 _atom_site_pbe_ddec_spin_density
 _atom_site_pbe_ddec_sum_bond_order
 _atom_site_pbe_magmom
Ni  Ni0  1  0.11390459  0.79687957  0.30704241  1  0.66091  0.723529  1.862313  2.56239  1.537
Ni  Ni1  1  0.87781422  0.20626893  0.69283819  1  0.628374  0.640032  -0.079847  2.685286  0.002
H  H2  1  0.17283207  0.63520091  0.67593286  1  0.112518  0.102957  1.2e-05  1.005114  0.0
H  H3  1  0.83314408  0.36328447  0.32481929  1  0.112716  0.104045  -5.6e-05  1.009711  0.0
H  H4  1  0.37500458  0.68463541  0.71617554  1  0.098803  0.077399  -2.4e-05  1.009197  0.0
H  H5  1  0.63001799  0.31523081  0.28648545  1  0.098666  0.076437  -8e-05  1.008535  0.0
H  H6  1  0.20778292  0.92317487  0.10726219  1  0.131406  0.09828  -6.8e-05  1.034914  0.0
H  H7  1  0.78186315  0.07907090  0.88999946  1  0.1335  0.103037  5.3e-05  1.036215  0.0
H  H8  1  0.51005751  0.80567392  0.27622688  1  0.123415  0.144256  0.00034  1.033153  0.001
H  H9  1  0.49638110  0.19605747  0.72312498  1  0.120233  0.138957  0.000234  1.046293  0.0
H  H10  1  0.32475618  0.53975254  0.18754425  1  0.106819  0.124993  0.000153  1.039249  0.0
H  H11  1  0.67767620  0.45751758  0.81218476  1  0.107579  0.125546  -0.000225  1.040512  0.0
H  H12  1  0.13124640  0.24158160  0.35670880  1  0.108392  0.118616  0.000126  1.010688  0.0
H  H13  1  0.86778491  0.76004879  0.64457365  1  0.108227  0.118436  -0.000154  1.010349  0.0
H  H14  1  0.11754375  0.64485447  0.50354628  1  0.135438  0.111093  0.000164  1.04353  0.0
H  H15  1  0.88711516  0.35684276  0.49775305  1  0.137237  0.114596  0.000124  1.041868  0.0
H  H16  1  0.28104300  0.70960323  0.89348967  1  0.088697  0.085594  -1.1e-05  1.014113  0.0
H  H17  1  0.71842394  0.29128020  0.10722918  1  0.088103  0.084656  9e-06  1.019424  0.0
H  H18  1  0.08917476  0.66176009  0.83358441  1  0.090763  0.084944  1.1e-05  1.006211  0.0
H  H19  1  0.91164139  0.33798126  0.16558007  1  0.091142  0.086234  2.9e-05  1.004526  0.0
H  H20  1  0.59387929  0.72317115  0.51790270  1  0.102629  0.079567  -9.2e-05  0.994996  0.0
H  H21  1  0.40951148  0.27802521  0.48121750  1  0.101576  0.077071  -1.5e-05  0.996994  0.0
H  H22  1  0.44244213  0.69619278  0.41843576  1  0.11469  0.105455  0.00016  1.011013  0.0
H  H23  1  0.56198355  0.30596771  0.58001295  1  0.113071  0.100282  0.000225  1.0205  0.0
H  H24  1  0.34465997  0.53337521  0.02923110  1  0.10492  0.074832  -5e-06  0.976692  0.0
H  H25  1  0.65579643  0.46113823  0.97103717  1  0.104547  0.074658  7e-06  0.977619  0.0
H  H26  1  0.53285000  0.56392101  0.10053805  1  0.105372  0.074679  0.0  0.974813  0.0
H  H27  1  0.46754051  0.43091967  0.89953293  1  0.106063  0.075858  4e-06  0.975724  0.0
H  H28  1  0.51614759  0.47195019  0.39393697  1  0.089068  0.084662  4e-06  1.007628  0.0
H  H29  1  0.48623173  0.52972713  0.60466028  1  0.089053  0.084727  -3.8e-05  1.006223  0.0
H  H30  1  0.67460320  0.49751662  0.48875510  1  0.092462  0.085633  6e-06  1.024702  0.0
H  H31  1  0.32801636  0.50324300  0.50984503  1  0.092849  0.087035  7e-06  1.02422  0.0
H  H32  1  0.30797127  0.89317815  0.78162357  1  0.091955  0.085358  1.9e-05  0.996269  0.0
H  H33  1  0.69298029  0.10694651  0.21834676  1  0.089642  0.081516  4.1e-05  0.997007  0.0
H  H34  1  0.11083437  0.86073608  0.72921871  1  0.097842  0.102492  -0.000132  1.00406  0.0
H  H35  1  0.89127859  0.13737298  0.26903911  1  0.096924  0.105643  0.000218  1.017244  0.0
H  H36  1  0.59274952  0.85932982  0.86193567  1  0.106523  0.123407  -4.7e-05  1.000976  0.0
H  H37  1  0.40427640  0.13567061  0.13981570  1  0.105731  0.121989  6.9e-05  0.999875  0.0
H  H38  1  0.33907062  0.01411251  0.45119120  1  0.112547  0.103814  0.000207  1.038508  0.001
H  H39  1  0.65951729  0.99094331  0.55346600  1  0.115079  0.107071  0.000244  1.039886  0.0
H  H40  1  0.90926008  0.59085818  0.15157570  1  0.119202  0.11458  0.000353  1.002049  0.001
H  H41  1  0.08619364  0.40678748  0.84294241  1  0.121408  0.117978  0.000344  1.000771  0.0
H  H42  1  0.88238798  0.65224532  0.45435406  1  0.134215  0.102322  4.3e-05  1.044932  0.001
H  H43  1  0.12259471  0.34844323  0.54595310  1  0.13011  0.097675  -5e-06  1.048252  0.0
H  H44  1  0.91485445  0.61551746  0.95497983  1  0.114233  0.111947  0.000327  1.055975  0.0
H  H45  1  0.08441562  0.38330191  0.03994511  1  0.11588  0.115025  0.000129  1.050081  0.0
H  H46  1  0.41838128  0.95953349  0.64321149  1  0.116443  0.124351  0.000425  1.064786  0.001
H  H47  1  0.58657985  0.03986358  0.36058956  1  0.117985  0.123177  0.00036  1.052431  0.0
H  H48  1  0.78802282  0.85854336  0.19915714  1  0.113742  0.106749  0.000448  1.016641  0.001
H  H49  1  0.21996624  0.14480092  0.80179875  1  0.109265  0.101264  0.000171  1.018778  0.0
H  H50  1  0.00196909  0.87631493  0.87593957  1  0.106157  0.085431  2e-06  1.010021  0.0
H  H51  1  0.99703133  0.12450385  0.11982402  1  0.106479  0.085727  1.9e-05  1.009544  0.0
H  H52  1  0.19206731  0.92756199  0.93574162  1  0.114053  0.091088  2.8e-05  0.957318  0.0
H  H53  1  0.80558251  0.07315525  0.06237480  1  0.114165  0.091857  8e-06  0.956875  0.0
C  C54  1  0.15679196  0.50592017  0.33015777  1  0.199847  0.560143  0.001502  4.232313  0.001
C  C55  1  0.84470376  0.49484757  0.66973378  1  0.203309  0.557943  -0.003497  4.223143  0.0
C  C56  1  0.75026948  0.96721681  0.73091547  1  0.190933  0.523465  -0.002483  4.260829  -0.001
C  C57  1  0.23393839  0.03236696  0.27173848  1  0.189589  0.530003  -0.002387  4.259552  -0.004
C  C58  1  0.26069026  0.71971806  0.69035529  1  -0.054053  -0.062703  0.000664  3.869932  0.001
C  C59  1  0.74441497  0.27929683  0.31091373  1  -0.054175  -0.062543  0.000202  3.860705  0.0
C  C60  1  0.37158918  0.34080375  0.15263494  1  0.073825  0.241587  0.000188  4.113415  0.0
C  C61  1  0.62932404  0.65513627  0.84889692  1  0.074662  0.243131  7.6e-05  4.114639  0.0
C  C62  1  0.22526375  0.40043415  0.27775780  1  -0.019563  -0.004318  0.00426  3.989702  0.005
C  C63  1  0.77644250  0.59927621  0.72321296  1  -0.019121  -0.005668  -0.003526  3.989381  -0.003
C  C64  1  0.12446542  0.83759949  0.09419802  1  0.134582  0.076843  -0.001831  3.927636  -0.001
C  C65  1  0.86716302  0.16335602  0.90246610  1  0.136704  0.07513  0.001339  3.903914  0.002
C  C66  1  0.62821977  0.78038579  0.29929153  1  -0.005267  -0.123696  0.002315  3.9259  0.003
C  C67  1  0.37834331  0.22194834  0.70062126  1  -0.008998  -0.123358  0.00056  3.926882  0.001
C  C68  1  0.31013147  0.43642931  0.20316421  1  -0.109705  -0.257408  0.00114  3.995609  0.001
C  C69  1  0.69189240  0.56112004  0.79755693  1  -0.109148  -0.25624  -0.002864  3.992885  -0.002
C  C70  1  0.20093209  0.26947531  0.30067718  1  -0.09103  -0.149108  0.001203  3.960541  0.001
C  C71  1  0.79922917  0.73085210  0.70092302  1  -0.091505  -0.152077  -0.002556  3.959709  -0.002
C  C72  1  0.18490472  0.73950328  0.51397488  1  0.139561  0.079731  -0.003062  3.903232  -0.002
C  C73  1  0.81911604  0.26248452  0.48796661  1  0.143506  0.07878  -0.001774  3.874592  -0.001
C  C74  1  0.17589210  0.74623837  0.85338445  1  -0.16512  -0.165299  0.000173  3.942215  0.0
C  C75  1  0.82419459  0.25394559  0.14596407  1  -0.165291  -0.165429  0.00015  3.930814  0.0
C  C76  1  0.55863078  0.66981496  0.44896214  1  -0.053439  -0.060988  0.000847  3.861196  0.001
C  C77  1  0.44531120  0.33162860  0.55003260  1  -0.055067  -0.059299  0.00036  3.86688  0.0
C  C78  1  0.46192392  0.49819102  0.04515941  1  -0.063856  0.002422  2e-05  3.907438  0.0
C  C79  1  0.53845628  0.49616606  0.95520795  1  -0.064226  0.001787  -2.3e-05  3.906058  0.0
C  C80  1  0.55547732  0.52302109  0.46343762  1  -0.16604  -0.163348  -8.3e-05  3.9314  0.0
C  C81  1  0.44737332  0.47834073  0.53522518  1  -0.166463  -0.164438  -3.5e-05  3.929284  0.0
C  C82  1  0.21360765  0.81399315  0.76294598  1  -0.163315  -0.166534  0.000152  3.928562  0.0
C  C83  1  0.78849384  0.18528795  0.23685515  1  -0.164449  -0.16866  0.00042  3.91956  0.001
C  C84  1  0.64627551  0.78633284  0.82422941  1  -0.100371  -0.225732  -0.003563  3.975582  -0.003
C  C85  1  0.35290607  0.20961280  0.17803226  1  -0.101423  -0.227505  0.001462  3.970016  0.002
C  C86  1  0.30256745  0.92981452  0.49029385  1  -0.005799  -0.029927  0.001164  3.99895  0.001
C  C87  1  0.69832499  0.07361184  0.51359777  1  -0.002803  -0.033478  0.002097  3.984782  0.003
C  C88  1  0.73202991  0.82416926  0.75116128  1  -0.019095  -0.00682  -0.00076  4.016547  0.0
C  C89  1  0.26589510  0.17407742  0.25102202  1  -0.019753  -0.010429  0.002729  4.019476  0.003
C  C90  1  0.97164879  0.66392859  0.11305498  1  -0.004813  -0.041552  -0.001518  4.018004  -0.001
C  C91  1  0.02300154  0.33514924  0.88212820  1  -0.001641  -0.04147  -0.000897  4.001489  -0.001
C  C92  1  0.82258971  0.70267250  0.39494703  1  0.140885  0.093621  -0.003172  3.884139  -0.002
C  C93  1  0.18268778  0.29852103  0.60557500  1  0.133863  0.085568  0.00018  3.907678  0.0
C  C94  1  0.97325968  0.67455408  0.01606486  1  -0.008452  -0.120177  0.001315  3.938579  0.001
C  C95  1  0.02331990  0.32478714  0.97929252  1  -0.008555  -0.122982  0.000342  3.938056  0.0
C  C96  1  0.34345070  0.90425825  0.58548111  1  -0.005072  -0.115636  0.00195  3.911117  0.002
C  C97  1  0.66099521  0.09658899  0.41772077  1  -0.002156  -0.111808  0.001192  3.912295  0.001
C  C98  1  0.76614040  0.80683095  0.26294791  1  -0.01171  -0.049675  -0.000353  4.037914  0.0
C  C99  1  0.24062239  0.19602080  0.73750194  1  -0.01706  -0.054743  0.000513  4.056472  0.001
C  C100  1  0.10812321  0.84151449  0.91597560  1  -0.049432  -0.05437  0.000735  3.892953  0.001
C  C101  1  0.88965242  0.15930720  0.08137340  1  -0.04902  -0.05351  0.000524  3.881057  0.001
N  N102  1  0.66644569  0.71500161  0.38307245  1  -0.242447  0.049706  0.000925  3.761309  0.002
N  N103  1  0.33905727  0.28644119  0.61660269  1  -0.246859  0.045448  0.000602  3.767456  0.001
N  N104  1  0.26731089  0.78342952  0.59909625  1  -0.246492  0.047386  0.000837  3.771964  0.001
N  N105  1  0.73906310  0.21608170  0.40277163  1  -0.242476  0.050882  0.000486  3.757313  0.001
N  N106  1  0.07086258  0.78565837  0.00540675  1  -0.248654  0.037569  0.000612  3.791581  0.001
N  N107  1  0.92381993  0.21518403  0.99097497  1  -0.24518  0.039111  0.000892  3.780649  0.001
N  N108  1  0.88643457  0.75794497  0.32310171  1  -0.352713  -0.276157  0.050968  3.622387  0.074
N  N109  1  0.11957600  0.24432961  0.67781852  1  -0.34747  -0.287369  0.017357  3.572191  0.025
N  N110  1  0.20434944  0.82642364  0.44645084  1  -0.362102  -0.285482  0.041558  3.640548  0.058
N  N111  1  0.79638061  0.17777236  0.55671835  1  -0.358562  -0.248649  0.020258  3.653132  0.025
N  N112  1  0.06593621  0.76646493  0.16089843  1  -0.349843  -0.262642  0.035384  3.610147  0.049
N  N113  1  0.92561725  0.23356266  0.83498419  1  -0.347017  -0.23207  0.020374  3.617823  0.026
O  O114  1  0.06385751  0.47385440  0.38823462  1  -0.329393  -0.567655  0.001277  2.148623  0.002
O  O115  1  0.93677501  0.52684841  0.61144195  1  -0.324136  -0.558718  -0.004092  2.153544  -0.004
O  O116  1  0.45080807  0.36645173  0.07649043  1  -0.186601  -0.211014  1.3e-05  2.554108  0.0
O  O117  1  0.54953493  0.62818151  0.92450702  1  -0.186894  -0.211432  7.9e-05  2.554431  0.0
O  O118  1  0.88263812  0.01272731  0.70777872  1  -0.302382  -0.494654  -0.042567  2.313288  -0.042
O  O119  1  0.09737630  0.99641522  0.29182468  1  -0.307482  -0.516506  0.046013  2.282494  0.071
O  O120  1  0.63902194  0.03442558  0.74102452  1  -0.320359  -0.566801  0.00573  2.195405  0.008
O  O121  1  0.33727581  0.95407551  0.26591207  1  -0.322916  -0.56784  0.023923  2.161475  0.034
O  O122  1  0.20323135  0.62214596  0.30785596  1  -0.324842  -0.556666  0.046133  2.421519  0.068
O  O123  1  0.79709121  0.37845543  0.69207112  1  -0.318286  -0.534232  -0.048789  2.466661  -0.049
