# generated using pymatgen
data_AgPH10C10(NO2)2
_symmetry_space_group_name_H-M   'P 1'
_cell_length_a   8.46537645
_cell_length_b   8.34701867
_cell_length_c   18.72900000
_cell_angle_alpha   90.00000000
_cell_angle_beta   101.50698562
_cell_angle_gamma   90.00000000
_symmetry_Int_Tables_number   1
_chemical_formula_structural   AgPH10C10(NO2)2
_chemical_formula_sum   'Ag4 P4 H40 C40 N8 O16'
_cell_volume   1296.80352008
_cell_formula_units_Z   4
loop_
 _symmetry_equiv_pos_site_id
 _symmetry_equiv_pos_as_xyz
  1  'x, y, z'
loop_
 _atom_site_type_symbol
 _atom_site_label
 _atom_site_symmetry_multiplicity
 _atom_site_fract_x
 _atom_site_fract_y
 _atom_site_fract_z
 _atom_site_occupancy
 _atom_site_hle17_bader_spin_density
 _atom_site_hle17_ddec_charge
 _atom_site_hle17_ddec_spin_density
 _atom_site_hle17_ddec_sum_bond_order
 _atom_site_hle17_magmom
 _atom_site_hse06_10hf_bader_spin_density
 _atom_site_hse06_10hf_ddec_charge
 _atom_site_hse06_10hf_ddec_spin_density
 _atom_site_hse06_10hf_ddec_sum_bond_order
 _atom_site_hse06_10hf_magmom
 _atom_site_hse06_bader_spin_density
 _atom_site_hse06_ddec_charge
 _atom_site_hse06_ddec_spin_density
 _atom_site_hse06_ddec_sum_bond_order
 _atom_site_hse06_magmom
 _atom_site_pbe_bader_charge
 _atom_site_pbe_bader_spin_density
 _atom_site_pbe_cm5_charge
 _atom_site_pbe_ddec_charge
 _atom_site_pbe_ddec_spin_density
 _atom_site_pbe_ddec_sum_bond_order
 _atom_site_pbe_magmom
Ag  Ag0  1  0.81646121  0.04468302  0.52235397  1  0  0.513659  0  1.424989  0  0  0.355603  0  1.859369  0  0  0.383455  0  1.820055  0  0.558413  0  0.479457  0.336861  0  1.886374  0
Ag  Ag1  1  0.18354534  0.04466864  0.97764374  1  0  0.513622  0  1.42494  0  0  0.355607  0  1.859288  0  0  0.383462  0  1.819983  0  0.558462  0  0.479442  0.336863  0  1.886292  0
Ag  Ag2  1  0.18354654  0.95532433  0.47764278  1  0  0.513527  0  1.424983  0  0  0.355512  0  1.859339  0  0  0.383358  0  1.820029  0  0.558392  0  0.479431  0.336773  0  1.886342  0
Ag  Ag3  1  0.81645518  0.95532073  0.02235769  1  0  0.513525  0  1.424847  0  0  0.355503  0  1.85921  0  0  0.383355  0  1.819902  0  0.558383  0  0.4794  0.33676  0  1.886214  0
P  P4  1  0.75838443  0.49879725  0.51553906  1  0  1.74282  0  4.863185  0  0  1.559023  0  5.393427  0  0  1.616576  0  5.337672  0  3.647048  0  0.412155  1.518828  0  5.431393  0
P  P5  1  0.24161247  0.49877569  0.98445938  1  0  1.742788  0  4.863326  0  0  1.558993  0  5.393553  0  0  1.616546  0  5.337789  0  3.647127  0  0.411935  1.518799  0  5.431523  0
P  P6  1  0.24161127  0.50121608  0.48445179  1  0  1.742855  0  4.863085  0  0  1.559034  0  5.393317  0  0  1.616585  0  5.337559  0  3.646632  0  0.412088  1.518841  0  5.431282  0
P  P7  1  0.75838564  0.50120889  0.01554825  1  0  1.742821  0  4.863039  0  0  1.558979  0  5.393293  0  0  1.616529  0  5.337541  0  3.646698  0  0.412115  1.518787  0  5.43125  0
H  H8  1  0.54827200  0.49516722  0.56917223  1  0  0.444987  0  0.861877  0  0  0.408658  0  0.933812  0  0  0.420412  0  0.917107  0  0.648349  0  0.297042  0.400454  0  0.945428  0
H  H9  1  0.45172731  0.49515643  0.93082643  1  0  0.444974  0  0.861883  0  0  0.40863  0  0.933839  0  0  0.420386  0  0.917132  0  0.648348  0  0.297013  0.400426  0  0.945456  0
H  H10  1  0.45172490  0.50484612  0.43081820  1  0  0.444976  0  0.861896  0  0  0.408596  0  0.933917  0  0  0.42035  0  0.917212  0  0.648236  0  0.296978  0.400392  0  0.945535  0
H  H11  1  0.54827200  0.50482575  0.06918131  1  0  0.444943  0  0.861947  0  0  0.408574  0  0.933944  0  0  0.420329  0  0.917239  0  0.648323  0  0.29699  0.40037  0  0.945562  0
H  H12  1  0.97294038  0.64685131  0.50866354  1  0  0.437702  0  0.872071  0  0  0.400953  0  0.945173  0  0  0.412888  0  0.927994  0  0.666709  0  0.295985  0.392603  0  0.957158  0
H  H13  1  0.02706014  0.64683694  0.99133843  1  0  0.43774  0  0.872014  0  0  0.401003  0  0.945097  0  0  0.412934  0  0.927923  0  0.666833  0  0.295977  0.392653  0  0.957083  0
H  H14  1  0.02705412  0.35316801  0.49132561  1  0  0.437523  0  0.872337  0  0  0.400842  0  0.94535  0  0  0.412778  0  0.92817  0  0.666581  0  0.29592  0.39249  0  0.957338  0
H  H15  1  0.97294038  0.35315603  0.00867101  1  0  0.437575  0  0.872266  0  0  0.400887  0  0.945276  0  0  0.412823  0  0.928096  0  0.666556  0  0.295956  0.392535  0  0.957264  0
H  H16  1  0.60744459  0.77324135  0.44059659  1  0  0.09697  0  0.980013  0  0  0.104153  0  1.044367  0  0  0.106696  0  1.041916  0  0.183244  0  0.11835  0.102124  0  1.046303  0
H  H17  1  0.39256557  0.77323057  0.05939717  1  0  0.097068  0  0.980034  0  0  0.104143  0  1.044453  0  0  0.106739  0  1.041924  0  0.183165  0  0.118343  0.102062  0  1.04645  0
H  H18  1  0.39254990  0.22677558  0.55940216  1  0  0.097118  0  0.979957  0  0  0.104221  0  1.044368  0  0  0.106791  0  1.041886  0  0.183146  0  0.118407  0.102147  0  1.046354  0
H  H19  1  0.60744339  0.22676480  0.94059648  1  0  0.097062  0  0.980121  0  0  0.104193  0  1.044489  0  0  0.106749  0  1.042022  0  0.18319  0  0.118373  0.102115  0  1.04648  0
H  H20  1  0.37807410  0.74363917  0.33961970  1  0  0.119749  0  0.953454  0  0  0.131428  0  1.009228  0  0  0.134638  0  1.007669  0  0.1134  0  0.112878  0.129106  0  1.010537  0
H  H21  1  0.62193968  0.74361041  0.16037119  1  0  0.119565  0  0.953593  0  0  0.131398  0  1.009213  0  0  0.134605  0  1.007651  0  0.113188  0  0.112929  0.129076  0  1.010518  0
H  H22  1  0.62190231  0.25638256  0.66038650  1  0  0.119749  0  0.953461  0  0  0.131483  0  1.009164  0  0  0.134694  0  1.007601  0  0.113473  0  0.112928  0.129158  0  1.010478  0
H  H23  1  0.37808616  0.25637537  0.83961545  1  0  0.119679  0  0.953579  0  0  0.131475  0  1.009215  0  0  0.134683  0  1.007654  0  0.113527  0  0.112954  0.129152  0  1.010524  0
H  H24  1  0.39047521  0.25940879  0.30959472  1  0  0.110249  0  0.944785  0  0  0.124386  0  0.996337  0  0  0.127467  0  0.995234  0  0.068872  0  0.112462  0.122165  0  0.99732  0
H  H25  1  0.60950482  0.25936686  0.19041928  1  0  0.110203  0  0.945  0  0  0.124351  0  0.996516  0  0  0.127429  0  0.995417  0  0.068396  0  0.112501  0.12213  0  0.9975  0
H  H26  1  0.60953978  0.74060934  0.69040001  1  0  0.110191  0  0.944831  0  0  0.124258  0  0.996453  0  0  0.127335  0  0.995358  0  0.068602  0  0.112474  0.122038  0  0.997435  0
H  H27  1  0.39045351  0.74060215  0.80959971  1  0  0.110164  0  0.944782  0  0  0.124245  0  0.996408  0  0  0.127324  0  0.995308  0  0.068924  0  0.112466  0.122024  0  0.997391  0
H  H28  1  0.61347939  0.26997663  0.41473943  1  0  0.097373  0  0.989754  0  0  0.103168  0  1.05393  0  0  0.106219  0  1.050976  0  0.189691  0  0.1176  0.100883  0  1.056096  0
H  H29  1  0.38651269  0.26995507  0.08527406  1  0  0.097476  0  0.989741  0  0  0.103269  0  1.053874  0  0  0.106324  0  1.050922  0  0.18961  0  0.11763  0.100983  0  1.056042  0
H  H30  1  0.38654283  0.73004150  0.58525596  1  0  0.097359  0  0.989928  0  0  0.103216  0  1.054  0  0  0.106271  0  1.051046  0  0.189545  0  0.117577  0.100931  0  1.056168  0
H  H31  1  0.61345649  0.73003071  0.91474324  1  0  0.097364  0  0.989773  0  0  0.103165  0  1.053932  0  0  0.106218  0  1.050979  0  0.189811  0  0.117571  0.10088  0  1.056101  0
H  H32  1  0.24220800  0.72744416  0.23525310  1  0  0.111083  0  0.937071  0  0  0.127701  0  0.984694  0  0  0.13043  0  0.984161  0  0.075938  0  0.115689  0.12571  0  0.985265  0
H  H33  1  0.75782748  0.72741900  0.26474401  1  0  0.11108  0  0.937359  0  0  0.12771  0  0.984963  0  0  0.13043  0  0.984423  0  0.075798  0  0.115726  0.125709  0  0.985546  0
H  H34  1  0.75784195  0.27257517  0.76473677  1  0  0.110955  0  0.937149  0  0  0.127717  0  0.984618  0  0  0.130445  0  0.984078  0  0.076043  0  0.115709  0.125726  0  0.98519  0
H  H35  1  0.24219956  0.27256678  0.73525394  1  0  0.111058  0  0.937106  0  0  0.127706  0  0.984699  0  0  0.13043  0  0.984164  0  0.075871  0  0.115692  0.125715  0  0.98527  0
H  H36  1  0.02793173  0.72177627  0.12253881  1  0  0.105628  0  0.944907  0  0  0.116229  0  0.999621  0  0  0.118913  0  0.997242  0  0.148172  0  0.123441  0.114173  0  1.001471  0
H  H37  1  0.97210375  0.72175231  0.37746151  1  0  0.105617  0  0.944839  0  0  0.116267  0  0.999468  0  0  0.118948  0  0.997095  0  0.147924  0  0.123499  0.114211  0  1.001318  0
H  H38  1  0.97211460  0.27823228  0.87745608  1  0  0.10551  0  0.944963  0  0  0.116192  0  0.999565  0  0  0.118875  0  0.997187  0  0.148348  0  0.123421  0.114138  0  1.001408  0
H  H39  1  0.02792932  0.27823587  0.62253592  1  0  0.105749  0  0.944825  0  0  0.116359  0  0.999503  0  0  0.119043  0  0.997123  0  0.147999  0  0.123482  0.114303  0  1.001353  0
H  H40  1  0.98137053  0.21546495  0.12164428  1  0  0.102381  0  0.962579  0  0  0.113162  0  1.020321  0  0  0.115741  0  1.01769  0  0.184461  0  0.120568  0.111173  0  1.02235  0
H  H41  1  0.01861553  0.21544938  0.37835852  1  0  0.102533  0  0.962442  0  0  0.113267  0  1.020234  0  0  0.115851  0  1.017595  0  0.184611  0  0.120635  0.111278  0  1.022264  0
H  H42  1  0.01859021  0.78453281  0.87836692  1  0  0.102502  0  0.962305  0  0  0.113282  0  1.02004  0  0  0.115866  0  1.017401  0  0.184512  0  0.120589  0.111291  0  1.022072  0
H  H43  1  0.98138379  0.78454359  0.62163373  1  0  0.102493  0  0.962486  0  0  0.113228  0  1.020271  0  0  0.115809  0  1.017638  0  0.184546  0  0.120584  0.11124  0  1.0223  0
H  H44  1  0.18892192  0.24349293  0.23461900  1  0  0.108302  0  0.940372  0  0  0.12513  0  0.98725  0  0  0.127673  0  0.986924  0  0.076634  0  0.115539  0.12329  0  0.987664  0
H  H45  1  0.81106051  0.24347136  0.26538561  1  0  0.10808  0  0.94046  0  0  0.125036  0  0.987182  0  0  0.127583  0  0.986848  0  0.076568  0  0.115513  0.123197  0  0.987596  0
H  H46  1  0.81103640  0.75651442  0.76539518  1  0  0.108134  0  0.940566  0  0  0.125049  0  0.987343  0  0  0.127594  0  0.987011  0  0.076403  0  0.115561  0.12321  0  0.987755  0
H  H47  1  0.18893036  0.75651682  0.73460962  1  0  0.108151  0  0.940376  0  0  0.125046  0  0.987191  0  0  0.12759  0  0.986861  0  0.076453  0  0.11554  0.123207  0  0.987603  0
C  C48  1  0.55525072  0.87907075  0.41085973  1  0  0.117158  0  3.695091  0  0  0.086031  0  3.94211  0  0  0.092968  0  3.961237  0  0.378192  0  0.043582  0.081593  0  3.929281  0
C  C49  1  0.44475101  0.87904679  0.08913754  1  0  0.117281  0  3.695  0  0  0.086321  0  3.941923  0  0  0.093237  0  3.96103  0  0.378297  0  0.043748  0.081918  0  3.929118  0
C  C50  1  0.44473895  0.12094498  0.58914393  1  0  0.117267  0  3.694965  0  0  0.086218  0  3.94193  0  0  0.093133  0  3.961042  0  0.378433  0  0.043736  0.081814  0  3.929116  0
C  C51  1  0.55525072  0.12093899  0.91085920  1  0  0.117343  0  3.694919  0  0  0.086289  0  3.941931  0  0  0.093222  0  3.96105  0  0.378404  0  0.043742  0.081885  0  3.929124  0
C  C52  1  0.42713606  0.86328428  0.35204923  1  0  -0.157703  0  3.702061  0  0  -0.177121  0  3.954535  0  0  -0.184499  0  3.974176  0  0.043072  0  -0.08155  -0.172405  0  3.941494  0
C  C53  1  0.57287049  0.86326511  0.14795008  1  0  -0.157833  0  3.702357  0  0  -0.177431  0  3.9548  0  0  -0.184808  0  3.974446  0  0.042733  0  -0.081756  -0.17271  0  3.941742  0
C  C54  1  0.57285964  0.13673744  0.64795604  1  0  -0.15788  0  3.70213  0  0  -0.177365  0  3.954586  0  0  -0.184748  0  3.974237  0  0.042528  0  -0.081707  -0.172646  0  3.94153  0
C  C55  1  0.42712883  0.13672666  0.85204431  1  0  -0.15787  0  3.702204  0  0  -0.177408  0  3.954667  0  0  -0.184787  0  3.974312  0  0.042782  0  -0.081693  -0.172689  0  3.941612  0
C  C56  1  0.36490146  0.99895308  0.31175141  1  0  0.079688  0  3.779563  0  0  0.088115  0  4.017615  0  0  0.092333  0  4.039195  0  0.003728  0  0.008497  0.085444  0  4.002885  0
C  C57  1  0.63509182  0.99892433  0.18825150  1  0  0.079761  0  3.779379  0  0  0.088257  0  4.01742  0  0  0.092479  0  4.039002  0  -0.041594  0  0.008527  0.085586  0  4.00269  0
C  C58  1  0.63508941  0.00106625  0.68825289  1  0  0.079734  0  3.779624  0  0  0.088134  0  4.017648  0  0  0.092357  0  4.039228  0  0.002894  0  0.008466  0.085463  0  4.00292  0
C  C59  1  0.36490026  0.00106026  0.81174970  1  0  0.079684  0  3.779657  0  0  0.088106  0  4.017645  0  0  0.092326  0  4.039227  0  0.003374  0  0.008462  0.085436  0  4.002916  0
C  C60  1  0.43302137  0.14727654  0.33620315  1  0  -0.145188  0  3.701448  0  0  -0.165229  0  3.951166  0  0  -0.173025  0  3.972423  0  -0.048894  0  -0.078392  -0.160211  0  3.93697  0
C  C61  1  0.56697433  0.14725497  0.16380746  1  0  -0.144878  0  3.701215  0  0  -0.164924  0  3.95089  0  0  -0.172722  0  3.972155  0  -0.002989  0  -0.07835  -0.159905  0  3.936689  0
C  C62  1  0.56699241  0.85274279  0.66379361  1  0  -0.144994  0  3.701359  0  0  -0.164979  0  3.951079  0  0  -0.172778  0  3.972345  0  -0.048732  0  -0.078333  -0.159959  0  3.936875  0
C  C63  1  0.43300208  0.85273201  0.83620461  1  0  -0.145041  0  3.70116  0  0  -0.165048  0  3.950866  0  0  -0.172846  0  3.97213  0  -0.049363  0  -0.078418  -0.160029  0  3.936664  0
C  C64  1  0.55974366  0.15476424  0.39576535  1  0  0.117614  0  3.685649  0  0  0.089713  0  3.926901  0  0  0.096183  0  3.946617  0  0.424102  0  0.043204  0.085523  0  3.913626  0
C  C65  1  0.44024601  0.15473908  0.10424365  1  0  0.117351  0  3.68579  0  0  0.089414  0  3.927109  0  0  0.09588  0  3.94683  0  0.422927  0  0.043156  0.085225  0  3.913836  0
C  C66  1  0.44026048  0.84524670  0.60423214  1  0  0.117546  0  3.685919  0  0  0.089593  0  3.927118  0  0  0.096056  0  3.946832  0  0.424352  0  0.043228  0.085402  0  3.913846  0
C  C67  1  0.55973281  0.84524191  0.89576971  1  0  0.117529  0  3.685782  0  0  0.089635  0  3.927029  0  0  0.096102  0  3.946751  0  0.424072  0  0.043262  0.085442  0  3.913757  0
C  C68  1  0.23633474  0.98720158  0.24593555  1  0  0.096682  0  3.750685  0  0  0.108018  0  3.983862  0  0  0.111904  0  4.006303  0  0.053177  0  0.014651  0.105546  0  3.968535  0
C  C69  1  0.76366819  0.98717642  0.25406503  1  0  0.096805  0  3.750543  0  0  0.108037  0  3.983802  0  0  0.111915  0  4.006248  0  0.052721  0  0.014776  0.105568  0  3.968469  0
C  C70  1  0.76367301  0.01281416  0.75406386  1  0  0.096544  0  3.750427  0  0  0.108032  0  3.983454  0  0  0.111914  0  4.0059  0  0.053461  0  0.01467  0.105561  0  3.968124  0
C  C71  1  0.23632751  0.01281056  0.74593490  1  0  0.096581  0  3.750571  0  0  0.108091  0  3.983525  0  0  0.111976  0  4.005965  0  0.053309  0  0.014694  0.105619  0  3.968197  0
C  C72  1  0.18743914  0.83935837  0.21300097  1  0  -0.144422  0  3.694242  0  0  -0.163198  0  3.93918  0  0  -0.170836  0  3.96163  0  -0.053201  0  -0.074946  -0.158226  0  3.92407  0
C  C73  1  0.81257705  0.83932602  0.28699707  1  0  -0.144241  0  3.694212  0  0  -0.163014  0  3.939162  0  0  -0.170626  0  3.961591  0  -0.053316  0  -0.074883  -0.158034  0  3.924053  0
C  C74  1  0.81258669  0.16065497  0.78699687  1  0  -0.144391  0  3.694193  0  0  -0.163343  0  3.939141  0  0  -0.170974  0  3.961583  0  -0.053678  0  -0.074983  -0.158371  0  3.924029  0
C  C75  1  0.18743914  0.16065257  0.71299670  1  0  -0.144269  0  3.694155  0  0  -0.163127  0  3.939026  0  0  -0.170758  0  3.961469  0  -0.05304  0  -0.074918  -0.158154  0  3.923914  0
C  C76  1  0.06880705  0.83381987  0.15012317  1  0  0.125187  0  3.676209  0  0  0.093689  0  3.920409  0  0  0.100301  0  3.939654  0  0.461716  0  0.047308  0.089366  0  3.907414  0
C  C77  1  0.93121397  0.83380549  0.34987423  1  0  0.125015  0  3.676388  0  0  0.093497  0  3.920591  0  0  0.100104  0  3.939839  0  0.462383  0  0.047092  0.089175  0  3.907592  0
C  C78  1  0.93121999  0.16618389  0.84987051  1  0  0.125433  0  3.676127  0  0  0.093859  0  3.920367  0  0  0.10047  0  3.939615  0  0.462135  0  0.047217  0.089538  0  3.907368  0
C  C79  1  0.06880584  0.16619347  0.65012146  1  0  0.124905  0  3.676326  0  0  0.09335  0  3.920559  0  0  0.099963  0  3.939805  0  0.461535  0  0.047055  0.089027  0  3.907562  0
C  C80  1  0.04241355  0.11086713  0.14929389  1  0  0.109885  0  3.704598  0  0  0.077907  0  3.951207  0  0  0.084443  0  3.97017  0  0.451727  0  0.041029  0.073646  0  3.938419  0
C  C81  1  0.95758094  0.11085755  0.35070753  1  0  0.109874  0  3.704094  0  0  0.077941  0  3.95074  0  0  0.084474  0  3.969703  0  0.451788  0  0.040964  0.07368  0  3.937962  0
C  C82  1  0.95756647  0.88913183  0.85071050  1  0  0.10979  0  3.704581  0  0  0.077839  0  3.951201  0  0  0.084376  0  3.970161  0  0.452032  0  0.040998  0.073577  0  3.938418  0
C  C83  1  0.04242079  0.88914501  0.64928867  1  0  0.109818  0  3.704396  0  0  0.077861  0  3.951035  0  0  0.084397  0  3.97  0  0.451622  0  0.041022  0.073585  0  3.938277  0
C  C84  1  0.15966654  0.12448277  0.21215947  1  0  -0.148668  0  3.717919  0  0  -0.167341  0  3.964846  0  0  -0.174964  0  3.987394  0  -0.067583  0  -0.077968  -0.1624  0  3.949696  0
C  C85  1  0.84032313  0.12445162  0.28784526  1  0  -0.148726  0  3.718144  0  0  -0.167483  0  3.965076  0  0  -0.175107  0  3.987634  0  -0.066761  0  -0.078071  -0.162542  0  3.949926  0
C  C86  1  0.84031348  0.87552458  0.78785187  1  0  -0.148436  0  3.71827  0  0  -0.167281  0  3.965191  0  0  -0.174903  0  3.987747  0  -0.067494  0  -0.077988  -0.16234  0  3.950038  0
C  C87  1  0.15967498  0.87552697  0.71215115  1  0  -0.148428  0  3.717878  0  0  -0.167245  0  3.964791  0  0  -0.174867  0  3.987343  0  -0.066811  0  -0.077978  -0.162302  0  3.949638  0
N  N88  1  0.62196138  0.02242238  0.43230384  1  0  -0.296216  0  3.376527  0  0  -0.202341  0  3.653586  0  0  -0.222829  0  3.67318  0  -1.191564  0  -0.353776  -0.18852  0  3.639978  0
N  N89  1  0.37804276  0.02241159  0.06769846  1  0  -0.296241  0  3.376592  0  0  -0.202395  0  3.653635  0  0  -0.222894  0  3.673254  0  -1.190489  0  -0.353841  -0.188574  0  3.640012  0
N  N90  1  0.37804999  0.97758497  0.56769324  1  0  -0.29623  0  3.376718  0  0  -0.202342  0  3.653736  0  0  -0.222822  0  3.673332  0  -1.191082  0  -0.353867  -0.188521  0  3.64011  0
N  N91  1  0.62194932  0.97757778  0.93230595  1  0  -0.296089  0  3.376584  0  0  -0.202278  0  3.653672  0  0  -0.222772  0  3.673277  0  -1.191122  0  -0.353787  -0.188455  0  3.640047  0
N  N92  1  0.99751958  0.96760296  0.11849577  1  0  -0.302766  0  3.395825  0  0  -0.206538  0  3.675454  0  0  -0.226086  0  3.692631  0  -1.190082  0  -0.355257  -0.193387  0  3.6636  0
N  N93  1  0.00248095  0.96758379  0.38150513  1  0  -0.302801  0  3.395683  0  0  -0.206594  0  3.675333  0  0  -0.226142  0  3.692513  0  -1.190416  0  -0.355242  -0.193449  0  3.663486  0
N  N94  1  0.00247733  0.03239600  0.88150855  1  0  -0.302927  0  3.39563  0  0  -0.20667  0  3.675248  0  0  -0.22622  0  3.692424  0  -1.190422  0  -0.355188  -0.193519  0  3.663396  0
N  N95  1  0.99753042  0.03240798  0.61848820  1  0  -0.302876  0  3.395703  0  0  -0.206556  0  3.675246  0  0  -0.226109  0  3.692423  0  -1.19027  0  -0.355185  -0.193402  0  3.663391  0
O  O96  1  0.87101789  0.35438521  0.51888778  1  0  -0.915846  0  1.973136  0  0  -0.823777  0  2.235959  0  0  -0.850952  0  2.209709  0  -1.471455  0  -0.390167  -0.804518  0  2.253578  0
O  O97  1  0.12897298  0.35436724  0.98110638  1  0  -0.915786  0  1.973218  0  0  -0.823738  0  2.236051  0  0  -0.850913  0  2.209802  0  -1.471564  0  -0.390012  -0.804478  0  2.25367  0
O  O98  1  0.12898504  0.64563052  0.48110800  1  0  -0.915835  0  1.97324  0  0  -0.823757  0  2.23613  0  0  -0.850933  0  2.20988  0  -1.47156  0  -0.390063  -0.804499  0  2.253749  0
O  O99  1  0.87101187  0.64562453  0.01889311  1  0  -0.915887  0  1.97313  0  0  -0.823782  0  2.235997  0  0  -0.850951  0  2.209747  0  -1.471549  0  -0.3901  -0.804524  0  2.253613  0
O  O100  1  0.67339819  0.49746744  0.58388338  1  0  -0.806591  0  1.929278  0  0  -0.738731  0  2.152962  0  0  -0.760129  0  2.124749  0  -1.434394  0  -0.412234  -0.723577  0  2.172187  0
O  O101  1  0.32659871  0.49745426  0.91611613  1  0  -0.806502  0  1.929237  0  0  -0.738621  0  2.152935  0  0  -0.760005  0  2.124698  0  -1.434334  0  -0.412126  -0.723466  0  2.17216  0
O  O102  1  0.32660112  0.50255668  0.41610941  1  0  -0.806578  0  1.929129  0  0  -0.738628  0  2.152797  0  0  -0.760023  0  2.124581  0  -1.433879  0  -0.412123  -0.723471  0  2.17202  0
O  O103  1  0.67339699  0.50254470  0.08389021  1  0  -0.80648  0  1.929141  0  0  -0.738559  0  2.152828  0  0  -0.759958  0  2.124616  0  -1.433939  0  -0.412102  -0.723402  0  2.172052  0
O  O104  1  0.86588964  0.65737483  0.52733883  1  0  -0.817774  0  2.00253  0  0  -0.748111  0  2.24784  0  0  -0.769467  0  2.216818  0  -1.448345  0  -0.403261  -0.732902  0  2.268894  0
O  O105  1  0.13411088  0.65735806  0.97266207  1  0  -0.817822  0  2.002644  0  0  -0.748227  0  2.24801  0  0  -0.769618  0  2.217058  0  -1.448541  0  -0.403239  -0.733007  0  2.26904  0
O  O106  1  0.13410123  0.34264569  0.47264732  1  0  -0.817683  0  2.002786  0  0  -0.748096  0  2.248051  0  0  -0.769452  0  2.217031  0  -1.448104  0  -0.403225  -0.732897  0  2.269131  0
O  O107  1  0.86589808  0.34263731  0.02735187  1  0  -0.817709  0  2.002747  0  0  -0.748079  0  2.247978  0  0  -0.769432  0  2.216957  0  -1.448132  0  -0.403267  -0.732888  0  2.269072  0
O  O108  1  0.63195870  0.51194446  0.44536235  1  0  -0.901806  0  1.904483  0  0  -0.820606  0  2.135595  0  0  -0.846379  0  2.112746  0  -1.470965  0  -0.391834  -0.802262  0  2.150827  0
O  O109  1  0.36803580  0.51191212  0.05463694  1  0  -0.901894  0  1.904461  0  0  -0.820658  0  2.135523  0  0  -0.846439  0  2.112679  0  -1.470933  0  -0.391858  -0.802306  0  2.150746  0
O  O110  1  0.36803700  0.48805809  0.55462744  1  0  -0.9019  0  1.904487  0  0  -0.820683  0  2.135551  0  0  -0.846461  0  2.112705  0  -1.470995  0  -0.391946  -0.802332  0  2.150778  0
O  O111  1  0.63195990  0.48805210  0.94537207  1  0  -0.901899  0  1.904452  0  0  -0.82067  0  2.135528  0  0  -0.846448  0  2.112677  0  -1.471056  0  -0.391965  -0.80232  0  2.150756  0
