# generated using pymatgen
data_Ag2H22C19S3N4O5
_symmetry_space_group_name_H-M   'P 1'
_cell_length_a   7.15326306
_cell_length_b   12.52545256
_cell_length_c   14.21100000
_cell_angle_alpha   67.39753659
_cell_angle_beta   84.61426055
_cell_angle_gamma   89.64606708
_symmetry_Int_Tables_number   1
_chemical_formula_structural   Ag2H22C19S3N4O5
_chemical_formula_sum   'Ag4 H44 C38 S6 N8 O10'
_cell_volume   1169.67099188
_cell_formula_units_Z   2
loop_
 _symmetry_equiv_pos_site_id
 _symmetry_equiv_pos_as_xyz
  1  'x, y, z'
loop_
 _atom_site_type_symbol
 _atom_site_label
 _atom_site_symmetry_multiplicity
 _atom_site_fract_x
 _atom_site_fract_y
 _atom_site_fract_z
 _atom_site_occupancy
 _atom_site_hle17_bader_spin_density
 _atom_site_hle17_ddec_charge
 _atom_site_hle17_ddec_spin_density
 _atom_site_hle17_ddec_sum_bond_order
 _atom_site_hle17_magmom
 _atom_site_hse06_10hf_bader_spin_density
 _atom_site_hse06_10hf_ddec_charge
 _atom_site_hse06_10hf_ddec_spin_density
 _atom_site_hse06_10hf_ddec_sum_bond_order
 _atom_site_hse06_10hf_magmom
 _atom_site_hse06_bader_spin_density
 _atom_site_hse06_ddec_charge
 _atom_site_hse06_ddec_spin_density
 _atom_site_hse06_ddec_sum_bond_order
 _atom_site_hse06_magmom
 _atom_site_pbe_bader_charge
 _atom_site_pbe_bader_spin_density
 _atom_site_pbe_cm5_charge
 _atom_site_pbe_ddec_charge
 _atom_site_pbe_ddec_spin_density
 _atom_site_pbe_ddec_sum_bond_order
 _atom_site_pbe_magmom
Ag  Ag0  1  0.83125024  0.93279486  0.48565721  1  0  0.36508  0  1.81097  0  0  0.270556  0  2.30233  0  0  0.292269  0  2.253746  0  0.426545  0  0.31585  0.255617  0  2.33555  0
Ag  Ag1  1  0.16874906  0.06720428  0.51434178  1  0  0.365085  0  1.811022  0  0  0.270569  0  2.30236  0  0  0.292283  0  2.253775  0  0.4265  0  0.315869  0.255628  0  2.33558  0
Ag  Ag2  1  0.49142018  0.94818254  0.61414916  1  0  0.4025  0  1.818364  0  0  0.314493  0  2.291774  0  0  0.336399  0  2.241904  0  0.482537  0  0.367631  0.29986  0  2.325555  0
Ag  Ag3  1  0.50857785  0.05181920  0.38584900  1  0  0.402463  0  1.818413  0  0  0.314448  0  2.291837  0  0  0.336356  0  2.241964  0  0.484538  0  0.367626  0.299815  0  2.325619  0
H  H4  1  0.94685678  0.09139072  0.24801911  1  0  0.320952  0  0.934533  0  0  0.297244  0  1.003809  0  0  0.306949  0  0.9956  0  0.561504  0  0.306045  0.290331  0  1.009784  0
H  H5  1  0.05314266  0.90861101  0.75197899  1  0  0.32095  0  0.934546  0  0  0.297258  0  1.00381  0  0  0.306963  0  0.995602  0  0.561503  0  0.306041  0.290346  0  1.009784  0
H  H6  1  0.33509862  0.66606474  0.74507185  1  0  0.119542  0  0.916528  0  0  0.137936  0  0.973972  0  0  0.138891  0  0.973547  0  0.129417  0  0.123598  0.137133  0  0.974402  0
H  H7  1  0.66490091  0.33393873  0.25492847  1  0  0.119569  0  0.916448  0  0  0.137958  0  0.973899  0  0  0.138914  0  0.973474  0  0.129444  0  0.123597  0.137156  0  0.974326  0
H  H8  1  0.52708081  0.64640790  0.66466927  1  0  0.120621  0  0.938998  0  0  0.136952  0  0.997322  0  0  0.13814  0  0.996997  0  0.132404  0  0.119431  0.135952  0  0.997719  0
H  H9  1  0.47291741  0.35359730  0.33533124  1  0  0.120595  0  0.938974  0  0  0.136939  0  0.997294  0  0  0.138129  0  0.996966  0  0.132379  0  0.119443  0.135912  0  0.997716  0
H  H10  1  0.80230683  0.52124545  0.72716656  1  0  0.098538  0  0.967434  0  0  0.106964  0  1.034278  0  0  0.110029  0  1.032385  0  0.072904  0  0.102671  0.104721  0  1.03574  0
H  H11  1  0.19769551  0.47875802  0.27283222  1  0  0.098545  0  0.967433  0  0  0.10699  0  1.034259  0  0  0.110054  0  1.032366  0  0.072895  0  0.102681  0.104746  0  1.03572  0
H  H12  1  0.97989127  0.73513537  0.44348340  1  0  0.069217  0  0.961771  0  0  0.08243  0  1.035186  0  0  0.082791  0  1.034838  0  0.099437  0  0.095898  0.082134  0  1.035401  0
H  H13  1  0.02011487  0.26486031  0.55651574  1  0  0.069182  0  0.961736  0  0  0.082409  0  1.035168  0  0  0.082769  0  1.034815  0  0.099965  0  0.095879  0.082117  0  1.03538  0
H  H14  1  0.97206739  0.58992153  0.52943851  1  0  0.084482  0  0.926406  0  0  0.101346  0  0.988657  0  0  0.101866  0  0.988193  0  0.107219  0  0.115497  0.100882  0  0.989105  0
H  H15  1  0.02793743  0.41007589  0.47056221  1  0  0.084491  0  0.926375  0  0  0.101375  0  0.988626  0  0  0.101892  0  0.988158  0  0.107516  0  0.115497  0.100913  0  0.989074  0
H  H16  1  0.74591987  0.32668444  0.86890603  1  0  0.094822  0  0.967178  0  0  0.104609  0  1.030759  0  0  0.107618  0  1.029954  0  0.090334  0  0.098767  0.102518  0  1.031342  0
H  H17  1  0.25408659  0.67331730  0.13109244  1  0  0.094811  0  0.967204  0  0  0.10458  0  1.030801  0  0  0.107589  0  1.029996  0  0.090331  0  0.098766  0.102488  0  1.031388  0
H  H18  1  0.78087102  0.70543986  0.28739286  1  0  0.097172  0  0.926886  0  0  0.113862  0  0.987382  0  0  0.114795  0  0.986456  0  0.136848  0  0.115472  0.113111  0  0.98814  0
H  H19  1  0.21912969  0.29455929  0.71260888  1  0  0.097171  0  0.92694  0  0  0.113864  0  0.987423  0  0  0.114798  0  0.986501  0  0.136867  0  0.115474  0.113112  0  0.98818  0
H  H20  1  0.94060445  0.70584133  0.18494551  1  0  0.089805  0  0.922355  0  0  0.104746  0  0.987264  0  0  0.10561  0  0.986097  0  0.101809  0  0.119004  0.104034  0  0.988214  0
H  H21  1  0.05939490  0.29415867  0.81505529  1  0  0.08987  0  0.922335  0  0  0.1048  0  0.987261  0  0  0.105667  0  0.986097  0  0.101748  0  0.119019  0.104086  0  0.988213  0
H  H22  1  0.24003083  0.03217966  0.16111246  1  0  0.134747  0  0.887253  0  0  0.153134  0  0.93787  0  0  0.154978  0  0.936984  0  0.129994  0  0.131039  0.151481  0  0.938925  0
H  H23  1  0.75996865  0.96782294  0.83888605  1  0  0.134749  0  0.887232  0  0  0.153133  0  0.937852  0  0  0.154978  0  0.936963  0  0.129974  0  0.131032  0.151479  0  0.938909  0
H  H24  1  0.08634499  0.10810570  0.06694459  1  0  0.124701  0  0.916325  0  0  0.138612  0  0.976019  0  0  0.140287  0  0.975643  0  0.150875  0  0.126748  0.137282  0  0.976418  0
H  H25  1  0.91365286  0.89189258  0.93305405  1  0  0.124693  0  0.916335  0  0  0.138594  0  0.976036  0  0  0.140268  0  0.975661  0  0.150945  0  0.126748  0.137264  0  0.976435  0
H  H26  1  0.78474818  0.67816705  0.94940730  1  0  0.0936  0  0.943837  0  0  0.106834  0  1.001046  0  0  0.109488  0  0.999949  0  0.062406  0  0.104943  0.104935  0  1.001869  0
H  H27  1  0.21524134  0.32183296  0.05059467  1  0  0.093625  0  0.943774  0  0  0.106829  0  1.001021  0  0  0.109487  0  0.999918  0  0.062394  0  0.104934  0.10493  0  1.001843  0
H  H28  1  0.61123148  0.67843009  0.14951457  1  0  0.084733  0  0.951867  0  0  0.098785  0  1.008206  0  0  0.100738  0  1.008197  0  0.046592  0  0.10227  0.097352  0  1.008349  0
H  H29  1  0.38876646  0.32156992  0.85048700  1  0  0.084676  0  0.951833  0  0  0.098734  0  1.008175  0  0  0.100688  0  1.008165  0  0.046586  0  0.102237  0.097301  0  1.008318  0
H  H30  1  0.55323966  0.26431866  0.10934824  1  0  0.121992  0  0.970247  0  0  0.140531  0  1.037833  0  0  0.142091  0  1.03769  0  0.074592  0  0.087733  0.139389  0  1.037929  0
H  H31  1  0.44676245  0.73568048  0.89065132  1  0  0.121979  0  0.970308  0  0  0.140525  0  1.037886  0  0  0.142084  0  1.037744  0  0.074379  0  0.087735  0.139383  0  1.037982  0
H  H32  1  0.78963424  0.26521593  0.13563162  1  0  0.122452  0  0.978631  0  0  0.141123  0  1.043943  0  0  0.143265  0  1.042812  0  0.072716  0  0.087887  0.139529  0  1.044798  0
H  H33  1  0.21036796  0.73478495  0.86436735  1  0  0.122475  0  0.978609  0  0  0.141146  0  1.043914  0  0  0.143284  0  1.042788  0  0.072727  0  0.08791  0.139551  0  1.044771  0
H  H34  1  0.72796095  0.20585431  0.04704553  1  0  0.117246  0  0.970858  0  0  0.137836  0  1.032258  0  0  0.139933  0  1.030901  0  0.052833  0  0.087195  0.136317  0  1.033259  0
H  H35  1  0.27204256  0.79414483  0.95295396  1  0  0.117249  0  0.970864  0  0  0.137839  0  1.032267  0  0  0.139936  0  1.03091  0  0.052719  0  0.087193  0.136319  0  1.033271  0
H  H36  1  0.07903492  0.60524864  0.34996879  1  0  0.084031  0  0.97355  0  0  0.095698  0  1.037093  0  0  0.09778  0  1.036489  0  0.054445  0  0.098069  0.094175  0  1.037695  0
H  H37  1  0.92096387  0.39474099  0.65003626  1  0  0.084091  0  0.973461  0  0  0.095738  0  1.037036  0  0  0.097821  0  1.036429  0  0.054066  0  0.098065  0.094216  0  1.037638  0
H  H38  1  0.73357421  0.48529501  0.08955851  1  0  0.093951  0  0.941572  0  0  0.108123  0  0.996572  0  0  0.110958  0  0.996037  0  0.071444  0  0.102007  0.106087  0  0.997121  0
H  H39  1  0.26642083  0.51470326  0.91044167  1  0  0.093935  0  0.941557  0  0  0.10813  0  0.996538  0  0  0.110974  0  0.99599  0  0.071438  0  0.102  0.106093  0  0.997087  0
H  H40  1  0.45345648  0.63867340  0.42988324  1  0  0.121726  0  0.970571  0  0  0.135374  0  1.029793  0  0  0.138301  0  1.02908  0  0.05782  0  0.088009  0.133271  0  1.030366  0
H  H41  1  0.54655278  0.36132834  0.57010948  1  0  0.121703  0  0.970568  0  0  0.135337  0  1.029807  0  0  0.138265  0  1.029095  0  0.057812  0  0.087964  0.13323  0  1.030389  0
H  H42  1  0.42207178  0.59251383  0.32318721  1  0  0.119012  0  0.983576  0  0  0.133122  0  1.045657  0  0  0.135367  0  1.045756  0  0.07066  0  0.090622  0.131525  0  1.045659  0
H  H43  1  0.57792884  0.40748358  0.67680949  1  0  0.119015  0  0.98365  0  0  0.133139  0  1.045696  0  0  0.135383  0  1.045797  0  0.070754  0  0.09063  0.131542  0  1.045696  0
H  H44  1  0.64631564  0.94516886  0.07356930  1  0  0.122123  0  0.981042  0  0  0.133711  0  1.043805  0  0  0.136802  0  1.042736  0  0.067403  0  0.089781  0.131437  0  1.044742  0
H  H45  1  0.35368371  0.05483115  0.92643221  1  0  0.122167  0  0.981045  0  0  0.133755  0  1.043804  0  0  0.136845  0  1.042735  0  0.067407  0  0.089785  0.13148  0  1.044743  0
H  H46  1  0.47490512  0.85825323  0.03991550  1  0  0.128023  0  0.992283  0  0  0.141905  0  1.051811  0  0  0.144632  0  1.051332  0  0.094943  0  0.094161  0.139968  0  1.052182  0
H  H47  1  0.52509282  0.14174678  0.96008608  1  0  0.128057  0  0.992245  0  0  0.141921  0  1.051794  0  0  0.144649  0  1.051314  0  0.095367  0  0.094157  0.139985  0  1.052165  0
C  C48  1  0.26077586  0.79906899  0.52730621  1  0  0.369618  0  3.791532  0  0  0.329427  0  4.078059  0  0  0.353708  0  4.090388  0  0.966058  0  0.223501  0.313074  0  4.069308  0
C  C49  1  0.73922344  0.20093015  0.47269418  1  0  0.369647  0  3.791591  0  0  0.329469  0  4.078103  0  0  0.35375  0  4.090431  0  0.96606  0  0.223549  0.313118  0  4.069352  0
C  C50  1  0.85080642  0.92969206  0.25252278  1  0  0.397278  0  3.784943  0  0  0.34631  0  4.085473  0  0  0.374602  0  4.09307  0  0.854098  0  0.246528  0.327292  0  4.079694  0
C  C51  1  0.14919157  0.07030881  0.74747709  1  0  0.397226  0  3.784926  0  0  0.346291  0  4.085469  0  0  0.374583  0  4.093066  0  0.85415  0  0.246522  0.327274  0  4.07969  0
C  C52  1  0.38203311  0.67572271  0.66632754  1  0  -0.12205  0  3.682466  0  0  -0.182166  0  3.93832  0  0  -0.181156  0  3.946655  0  0.210177  0  -0.065344  -0.182664  0  3.932617  0
C  C53  1  0.61796637  0.32427989  0.33367308  1  0  -0.122131  0  3.682148  0  0  -0.182195  0  3.9381  0  0  -0.181192  0  3.946447  0  0.210162  0  -0.06537  -0.182674  0  3.932413  0
C  C54  1  0.79559872  0.61067464  0.82977682  1  0  -0.137785  0  3.776427  0  0  -0.11124  0  4.024759  0  0  -0.119959  0  4.048285  0  -0.193724  0  -0.028378  -0.105687  0  4.00911  0
C  C55  1  0.20439791  0.38932709  0.17022352  1  0  -0.137823  0  3.776401  0  0  -0.111223  0  4.02468  0  0  -0.119945  0  4.048211  0  -0.193682  0  -0.02838  -0.105673  0  4.009031  0
C  C56  1  0.78504888  0.51232382  0.80681793  1  0  -0.068477  0  3.788734  0  0  -0.095842  0  4.041462  0  0  -0.094067  0  4.061729  0  -0.034872  0  -0.091835  -0.096782  0  4.027696  0
C  C57  1  0.21495341  0.48767879  0.19318185  1  0  -0.068511  0  3.788757  0  0  -0.095913  0  4.041475  0  0  -0.094136  0  4.06174  0  -0.034899  0  -0.091853  -0.09685  0  4.027708  0
C  C58  1  0.06854261  0.66083342  0.47821671  1  0  0.030072  0  3.683986  0  0  -0.032524  0  3.932274  0  0  -0.026167  0  3.942927  0  0.267867  0  -0.054913  -0.036651  0  3.924977  0
C  C59  1  0.93146208  0.33916140  0.52178279  1  0  0.030072  0  3.683945  0  0  -0.032596  0  3.932351  0  0  -0.02623  0  3.942996  0  0.267168  0  -0.054912  -0.03673  0  3.925066  0
C  C60  1  0.25395460  0.60780806  0.62937181  1  0  0.540825  0  3.750548  0  0  0.498619  0  4.041319  0  0  0.52781  0  4.039009  0  1.347396  0  0.250146  0.478847  0  4.042398  0
C  C61  1  0.74604918  0.39219628  0.37062942  1  0  0.54124  0  3.750254  0  0  0.498795  0  4.041395  0  0  0.527986  0  4.039083  0  1.347487  0  0.250234  0.479028  0  4.042467  0
C  C62  1  0.75397666  0.40393950  0.88645842  1  0  -0.142546  0  3.731719  0  0  -0.158977  0  3.974893  0  0  -0.164276  0  3.996166  0  -0.045798  0  -0.09683  -0.155448  0  3.960449  0
C  C63  1  0.24602549  0.59606050  0.11354084  1  0  -0.142488  0  3.731867  0  0  -0.158905  0  3.975037  0  0  -0.164202  0  3.996308  0  -0.045816  0  -0.096817  -0.155377  0  3.960591  0
C  C64  1  0.73414197  0.39198516  0.98914613  1  0  0.165142  0  3.74426  0  0  0.190934  0  3.976738  0  0  0.193771  0  4.001032  0  0.014991  0  -0.001898  0.189075  0  3.960203  0
C  C65  1  0.26585882  0.60801572  0.01085360  1  0  0.165065  0  3.744246  0  0  0.190864  0  3.976721  0  0  0.193701  0  4.001018  0  0.015001  0  -0.00193  0.189005  0  3.960185  0
C  C66  1  0.82661907  0.75420817  0.20601823  1  0  0.009931  0  3.688126  0  0  -0.057041  0  3.944578  0  0  -0.05044  0  3.953698  0  0.270499  0  -0.051999  -0.061335  0  3.938362  0
C  C67  1  0.17338032  0.24579270  0.79398298  1  0  0.009883  0  3.688145  0  0  -0.057076  0  3.944619  0  0  -0.050487  0  3.953755  0  0.270535  0  -0.051974  -0.061371  0  3.938406  0
C  C68  1  0.05540866  0.92205793  0.12148258  1  0  0.542201  0  3.740131  0  0  0.498782  0  4.032308  0  0  0.528398  0  4.029983  0  1.349341  0  0.261393  0.478637  0  4.033548  0
C  C69  1  0.94459354  0.07794295  0.87851709  1  0  0.542136  0  3.740169  0  0  0.498729  0  4.032354  0  0  0.528345  0  4.030027  0  1.349362  0  0.261354  0.478579  0  4.033602  0
C  C70  1  0.09779555  0.03152899  0.13758424  1  0  -0.10112  0  3.636402  0  0  -0.165346  0  3.89106  0  0  -0.164973  0  3.898231  0  0.271622  0  -0.043791  -0.165351  0  3.886263  0
C  C71  1  0.90220380  0.96847102  0.86241586  1  0  -0.101113  0  3.636423  0  0  -0.165303  0  3.891068  0  0  -0.164926  0  3.898239  0  0.271524  0  -0.043788  -0.165304  0  3.886267  0
C  C72  1  0.77672682  0.60102447  0.93176095  1  0  -0.055217  0  3.770081  0  0  -0.079789  0  4.01988  0  0  -0.078443  0  4.040544  0  -0.05125  0  -0.083329  -0.080457  0  4.005892  0
C  C73  1  0.22326832  0.39897554  0.06824005  1  0  -0.055202  0  3.769981  0  0  -0.079769  0  4.019771  0  0  -0.078426  0  4.040441  0  -0.051226  0  -0.083334  -0.080436  0  4.005783  0
C  C74  1  0.66699647  0.76255181  0.14247843  1  0  -0.033331  0  3.763429  0  0  -0.038601  0  4.020335  0  0  -0.040354  0  4.042199  0  -0.099587  0  -0.094757  -0.037458  0  4.005535  0
C  C75  1  0.33300423  0.23744733  0.85752330  1  0  -0.033259  0  3.763362  0  0  -0.038531  0  4.020266  0  0  -0.040284  0  4.042134  0  -0.099573  0  -0.094753  -0.037389  0  4.005465  0
C  C76  1  0.69950709  0.27553927  0.07448433  1  0  -0.366906  0  3.704413  0  0  -0.447016  0  3.934595  0  0  -0.450033  0  3.94223  0  -0.106633  0  -0.254499  -0.444605  0  3.929257  0
C  C77  1  0.30049507  0.72446074  0.92551423  1  0  -0.366881  0  3.704386  0  0  -0.446995  0  3.934571  0  0  -0.450013  0  3.942208  0  -0.106353  0  -0.254512  -0.444585  0  3.929235  0
C  C78  1  0.17178950  0.62670088  0.39756103  1  0  -0.052544  0  3.767281  0  0  -0.058447  0  4.026104  0  0  -0.060792  0  4.0484  0  -0.156497  0  -0.104415  -0.056849  0  4.010926  0
C  C79  1  0.82821650  0.37329221  0.60243969  1  0  -0.05259  0  3.767051  0  0  -0.058469  0  4.025909  0  0  -0.060814  0  4.048203  0  -0.156509  0  -0.10442  -0.056868  0  4.01073  0
C  C80  1  0.74677819  0.49243249  0.01018233  1  0  -0.119765  0  3.718517  0  0  -0.138281  0  3.965215  0  0  -0.143538  0  3.987935  0  -0.032294  0  -0.086849  -0.134868  0  3.950009  0
C  C81  1  0.25321830  0.50756665  0.98981749  1  0  -0.119735  0  3.718425  0  0  -0.138263  0  3.965101  0  0  -0.143528  0  3.987821  0  -0.032281  0  -0.086813  -0.134849  0  3.949895  0
C  C82  1  0.35751522  0.61896378  0.38299050  1  0  -0.273485  0  3.662684  0  0  -0.321456  0  3.903577  0  0  -0.326006  0  3.921539  0  -0.011452  0  -0.193028  -0.318187  0  3.891323  0
C  C83  1  0.64248689  0.38103537  0.61700554  1  0  -0.273479  0  3.662561  0  0  -0.321437  0  3.903444  0  0  -0.325985  0  3.921398  0  -0.011487  0  -0.192984  -0.318167  0  3.89119  0
C  C84  1  0.59290021  0.86007113  0.08239989  1  0  -0.291138  0  3.662943  0  0  -0.336072  0  3.902597  0  0  -0.34167  0  3.920516  0  -0.082017  0  -0.194541  -0.332084  0  3.890568  0
C  C85  1  0.40709913  0.13992888  0.91760232  1  0  -0.291253  0  3.662917  0  0  -0.33617  0  3.902577  0  0  -0.341766  0  3.920495  0  -0.082489  0  -0.194537  -0.332182  0  3.890551  0
S  S86  1  0.83438861  0.74980056  0.73043534  1  0  1.282664  0  5.6108  0  0  1.181147  0  6.126129  0  0  1.228806  0  6.104255  0  3.134527  0  0.498095  1.148369  0  6.140061  0
S  S87  1  0.16560938  0.25020031  0.26956594  1  0  1.28269  0  5.610546  0  0  1.181116  0  6.125903  0  0  1.22878  0  6.104027  0  3.134532  0  0.498069  1.148341  0  6.139831  0
S  S88  1  0.19767746  0.92103001  0.42754322  1  0  -0.352819  0  2.476593  0  0  -0.30358  0  2.904301  0  0  -0.323302  0  2.888168  0  -0.181081  0  -0.189037  -0.289884  0  2.914726  0
S  S89  1  0.80231768  0.07897000  0.57245567  1  0  -0.352825  0  2.47663  0  0  -0.303593  0  2.904344  0  0  -0.323315  0  2.888211  0  -0.181069  0  -0.189038  -0.289898  0  2.914766  0
S  S90  1  0.67724931  0.88377996  0.35005408  1  0  -0.318984  0  2.31855  0  0  -0.286981  0  2.71872  0  0  -0.305876  0  2.705438  0  -0.059738  0  -0.157169  -0.274274  0  2.727661  0
S  S91  1  0.32274746  0.11622438  0.64994256  1  0  -0.318967  0  2.318544  0  0  -0.28697  0  2.718712  0  0  -0.305866  0  2.705433  0  -0.059744  0  -0.157171  -0.274259  0  2.727643  0
N  N92  1  0.37271822  0.79587361  0.59579917  1  0  -0.38932  0  3.19391  0  0  -0.318057  0  3.492626  0  0  -0.341491  0  3.505459  0  -1.100574  0  -0.385552  -0.302391  0  3.483566  0
N  N93  1  0.62727836  0.20412726  0.40420218  1  0  -0.38935  0  3.193922  0  0  -0.318092  0  3.492643  0  0  -0.341527  0  3.505479  0  -1.100561  0  -0.385565  -0.302421  0  3.483565  0
N  N94  1  0.19013327  0.68933488  0.54176239  1  0  -0.243073  0  3.413831  0  0  -0.154393  0  3.637095  0  0  -0.178715  0  3.656867  0  -1.191402  0  -0.250264  -0.138015  0  3.623346  0
N  N95  1  0.80987160  0.31066339  0.45823803  1  0  -0.243189  0  3.413773  0  0  -0.154415  0  3.637127  0  0  -0.178738  0  3.656898  0  -1.191252  0  -0.250332  -0.138048  0  3.623409  0
N  N96  1  0.95577038  0.02641274  0.21889360  1  0  -0.355527  0  3.353075  0  0  -0.293351  0  3.602372  0  0  -0.313792  0  3.613164  0  -1.26032  0  -0.396331  -0.279755  0  3.594957  0
N  N97  1  0.04422615  0.97358726  0.78110663  1  0  -0.355528  0  3.353061  0  0  -0.293386  0  3.60237  0  0  -0.31383  0  3.613164  0  -1.260318  0  -0.396312  -0.27979  0  3.594952  0
N  N98  1  0.90742840  0.86522977  0.19469596  1  0  -0.238863  0  3.399752  0  0  -0.151795  0  3.628252  0  0  -0.175789  0  3.646107  0  -1.154712  0  -0.241961  -0.135662  0  3.615784  0
N  N99  1  0.09257376  0.13477023  0.80530542  1  0  -0.238801  0  3.399745  0  0  -0.151796  0  3.628314  0  0  -0.175786  0  3.646171  0  -1.154705  0  -0.241962  -0.135662  0  3.615845  0
O  O100  1  0.02924033  0.78661885  0.73319599  1  0  -0.667827  0  2.024107  0  0  -0.612021  0  2.283244  0  0  -0.634125  0  2.270241  0  -1.334479  0  -0.336312  -0.596304  0  2.291629  0
O  O101  1  0.97075630  0.21338289  0.26680506  1  0  -0.667858  0  2.024036  0  0  -0.612018  0  2.283163  0  0  -0.634132  0  2.270163  0  -1.334524  0  -0.336328  -0.596302  0  2.291545  0
O  O102  1  0.80996003  0.73596861  0.63379739  1  0  -0.64211  0  2.010615  0  0  -0.580396  0  2.277398  0  0  -0.602342  0  2.262914  0  -1.314867  0  -0.34208  -0.565068  0  2.286943  0
O  O103  1  0.19003941  0.26403312  0.36620353  1  0  -0.642164  0  2.010602  0  0  -0.580399  0  2.277333  0  0  -0.602351  0  2.262852  0  -1.314913  0  -0.34208  -0.56507  0  2.286871  0
O  O104  1  0.69582790  0.82494614  0.75563922  1  0  -0.660552  0  1.984734  0  0  -0.599089  0  2.24767  0  0  -0.621121  0  2.232472  0  -1.332398  0  -0.352358  -0.583386  0  2.257368  0
O  O105  1  0.30417018  0.17505646  0.24436006  1  0  -0.660517  0  1.984657  0  0  -0.599047  0  2.247597  0  0  -0.621075  0  2.232395  0  -1.33233  0  -0.352314  -0.583343  0  2.257292  0
O  O106  1  0.13101080  0.88670971  0.05843743  1  0  -0.507806  0  1.975743  0  0  -0.470346  0  2.198486  0  0  -0.490066  0  2.192995  0  -1.145899  0  -0.264929  -0.456859  0  2.202053  0
O  O107  1  0.86898986  0.11328857  0.94156390  1  0  -0.507781  0  1.975768  0  0  -0.470305  0  2.198502  0  0  -0.490029  0  2.193012  0  -1.145928  0  -0.264902  -0.456816  0  2.20207  0
O  O108  1  0.21201462  0.50379241  0.66563225  1  0  -0.52754  0  1.925498  0  0  -0.488345  0  2.142451  0  0  -0.508575  0  2.13707  0  -1.145578  0  -0.287605  -0.47431  0  2.145778  0
O  O109  1  0.78798731  0.49620327  0.33437271  1  0  -0.527675  0  1.925611  0  0  -0.488407  0  2.142729  0  0  -0.508639  0  2.137349  0  -1.145659  0  -0.287617  -0.474375  0  2.146056  0
