# generated using pymatgen
data_Cd2H22C28(N2O3)3
_symmetry_space_group_name_H-M   'P 1'
_cell_length_a   9.65991272
_cell_length_b   12.33231254
_cell_length_c   14.07500000
_cell_angle_alpha   111.53153366
_cell_angle_beta   90.00000000
_cell_angle_gamma   113.05683263
_symmetry_Int_Tables_number   1
_chemical_formula_structural   Cd2H22C28(N2O3)3
_chemical_formula_sum   'Cd4 H44 C56 N12 O18'
_cell_volume   1414.75287118
_cell_formula_units_Z   2
loop_
 _symmetry_equiv_pos_site_id
 _symmetry_equiv_pos_as_xyz
  1  'x, y, z'
loop_
 _atom_site_type_symbol
 _atom_site_label
 _atom_site_symmetry_multiplicity
 _atom_site_fract_x
 _atom_site_fract_y
 _atom_site_fract_z
 _atom_site_occupancy
 _atom_site_hle17_bader_spin_density
 _atom_site_hle17_ddec_charge
 _atom_site_hle17_ddec_spin_density
 _atom_site_hle17_ddec_sum_bond_order
 _atom_site_hle17_magmom
 _atom_site_hse06_10hf_bader_spin_density
 _atom_site_hse06_10hf_ddec_charge
 _atom_site_hse06_10hf_ddec_spin_density
 _atom_site_hse06_10hf_ddec_sum_bond_order
 _atom_site_hse06_10hf_magmom
 _atom_site_hse06_bader_spin_density
 _atom_site_hse06_ddec_charge
 _atom_site_hse06_ddec_spin_density
 _atom_site_hse06_ddec_sum_bond_order
 _atom_site_hse06_magmom
 _atom_site_pbe_bader_charge
 _atom_site_pbe_bader_spin_density
 _atom_site_pbe_cm5_charge
 _atom_site_pbe_ddec_charge
 _atom_site_pbe_ddec_spin_density
 _atom_site_pbe_ddec_sum_bond_order
 _atom_site_pbe_magmom
Cd  Cd0  1  0.93918147  0.94404305  0.34700917  1  0  1.162612  0  1.744472  0  0  0.977304  0  2.190381  0  0  1.031215  0  2.138757  0  1.308688  0  0.781328  0.938671  0  2.225695  0
Cd  Cd1  1  0.99540389  0.05599206  0.15306905  1  0  1.162309  0  1.747108  0  0  0.976972  0  2.193374  0  0  1.030825  0  2.141722  0  1.307762  0  0.781354  0.938419  0  2.228734  0
Cd  Cd2  1  0.06081714  0.05595554  0.65298981  1  0  1.162609  0  1.744491  0  0  0.977295  0  2.190402  0  0  1.031206  0  2.138777  0  1.308699  0  0.781329  0.938662  0  2.225715  0
Cd  Cd3  1  0.00459576  0.94400653  0.84692779  1  0  1.162336  0  1.747076  0  0  0.977019  0  2.193306  0  0  1.030873  0  2.141653  0  1.307835  0  0.781361  0.938467  0  2.228666  0
H  H4  1  0.37543877  0.80670096  0.16764952  1  0  0.127868  0  0.956663  0  0  0.134369  0  1.020236  0  0  0.139051  0  1.016533  0  0.158146  0  0.111898  0.130896  0  1.023149  0
H  H5  1  0.56900625  0.19305064  0.33221462  1  0  0.128496  0  0.956003  0  0  0.134857  0  1.019677  0  0  0.139591  0  1.015905  0  0.156437  0  0.112046  0.131309  0  1.022639  0
H  H6  1  0.62456143  0.19329666  0.83234631  1  0  0.127902  0  0.956541  0  0  0.134333  0  1.020185  0  0  0.139012  0  1.016488  0  0.158256  0  0.111885  0.13086  0  1.023097  0
H  H7  1  0.43099588  0.80695083  0.66778458  1  0  0.128491  0  0.956021  0  0  0.134846  0  1.019702  0  0  0.139583  0  1.015924  0  0.156418  0  0.112047  0.131298  0  1.022665  0
H  H8  1  0.21363787  0.58947539  0.41396785  1  0  0.10883  0  0.95199  0  0  0.118912  0  1.016358  0  0  0.121191  0  1.016111  0  0.067483  0  0.10849  0.11706  0  1.016801  0
H  H9  1  0.62406603  0.41053088  0.08608830  1  0  0.109235  0  0.951532  0  0  0.119178  0  1.016082  0  0  0.121438  0  1.015863  0  0.084982  0  0.108751  0.117364  0  1.01645  0
H  H10  1  0.78636330  0.41052416  0.58602930  1  0  0.108831  0  0.952025  0  0  0.118939  0  1.016363  0  0  0.121216  0  1.016119  0  0.067537  0  0.108519  0.11709  0  1.016802  0
H  H11  1  0.37593906  0.58947443  0.91391426  1  0  0.109244  0  0.951473  0  0  0.119182  0  1.016029  0  0  0.121443  0  1.015811  0  0.084748  0  0.108748  0.117369  0  1.016397  0
H  H12  1  0.24797730  0.79892712  0.32301965  1  0  0.098397  0  0.95456  0  0  0.108282  0  1.013814  0  0  0.110688  0  1.013458  0  0.097867  0  0.106782  0.106559  0  1.01415  0
H  H13  1  0.44937548  0.20098401  0.17689294  1  0  0.096793  0  0.95552  0  0  0.106881  0  1.01455  0  0  0.109255  0  1.014233  0  0.082901  0  0.106348  0.105184  0  1.014869  0
H  H14  1  0.75202084  0.20107051  0.67697617  1  0  0.098421  0  0.954578  0  0  0.108316  0  1.013823  0  0  0.110726  0  1.013467  0  0.097881  0  0.106794  0.106594  0  1.014161  0
H  H15  1  0.55062562  0.79901745  0.82310767  1  0  0.096816  0  0.955529  0  0  0.10693  0  1.014526  0  0  0.109303  0  1.014208  0  0.082896  0  0.106369  0.105231  0  1.014846  0
H  H16  1  0.98263060  0.78231940  0.47750217  1  0  0.109848  0  0.962631  0  0  0.112292  0  1.037378  0  0  0.116353  0  1.031817  0  0.213972  0  0.135147  0.109197  0  1.041485  0
H  H17  1  0.20022277  0.21774357  0.02265961  1  0  0.111347  0  0.961285  0  0  0.112879  0  1.036634  0  0  0.117011  0  1.030982  0  0.200601  0  0.135183  0.109805  0  1.040707  0
H  H18  1  0.01736953  0.21768014  0.52249783  1  0  0.109839  0  0.962623  0  0  0.112294  0  1.037355  0  0  0.116345  0  1.031803  0  0.213798  0  0.135146  0.109199  0  1.041462  0
H  H19  1  0.79978239  0.78225982  0.97733523  1  0  0.111324  0  0.961348  0  0  0.112818  0  1.036737  0  0  0.116953  0  1.031072  0  0.200652  0  0.135139  0.109741  0  1.040817  0
H  H20  1  0.92839440  0.65471841  0.15195633  1  0  0.109665  0  0.957597  0  0  0.121497  0  1.014319  0  0  0.123718  0  1.013626  0  0.111794  0  0.119492  0.119832  0  1.015031  0
H  H21  1  0.27399440  0.34553101  0.34820927  1  0  0.109797  0  0.957824  0  0  0.121382  0  1.014849  0  0  0.12355  0  1.014221  0  0.113136  0  0.119775  0.119741  0  1.015512  0
H  H22  1  0.07160821  0.34528402  0.84804459  1  0  0.109672  0  0.957552  0  0  0.12147  0  1.01431  0  0  0.123686  0  1.01362  0  0.111831  0  0.1195  0.119805  0  1.01502  0
H  H23  1  0.72598629  0.65446277  0.65178390  1  0  0.109813  0  0.957874  0  0  0.121387  0  1.014892  0  0  0.12356  0  1.014269  0  0.11312  0  0.119743  0.119744  0  1.015554  0
H  H24  1  0.40126404  0.83085475  0.48279787  1  0  0.135274  0  0.985061  0  0  0.139711  0  1.053152  0  0  0.144638  0  1.049194  0  0.198512  0  0.111036  0.136011  0  1.056362  0
H  H25  1  0.57072623  0.16912557  0.01711566  1  0  0.135749  0  0.984998  0  0  0.13977  0  1.053563  0  0  0.144821  0  1.049468  0  0.185249  0  0.110926  0.136013  0  1.056753  0
H  H26  1  0.59873465  0.16914191  0.51719836  1  0  0.135298  0  0.985019  0  0  0.139722  0  1.053132  0  0  0.14465  0  1.04917  0  0.198429  0  0.111026  0.136018  0  1.05634  0
H  H27  1  0.42927383  0.83087590  0.98288353  1  0  0.13584  0  0.984956  0  0  0.139867  0  1.053505  0  0  0.144915  0  1.049414  0  0.185289  0  0.110972  0.136111  0  1.056696  0
H  H28  1  0.94062124  0.46178598  0.20793248  1  0  0.121149  0  0.944822  0  0  0.133245  0  0.999599  0  0  0.135896  0  0.998816  0  0.106724  0  0.124604  0.131348  0  1.000208  0
H  H29  1  0.47891231  0.53841154  0.29209850  1  0  0.12102  0  0.945128  0  0  0.133095  0  0.999962  0  0  0.135787  0  0.999127  0  0.096101  0  0.12455  0.131168  0  1.000601  0
H  H30  1  0.05937882  0.53821549  0.79206671  1  0  0.121154  0  0.944734  0  0  0.133231  0  0.999546  0  0  0.13588  0  0.998767  0  0.10672  0  0.124608  0.131335  0  1.000154  0
H  H31  1  0.52108017  0.46158512  0.70790342  1  0  0.120984  0  0.945123  0  0  0.133083  0  0.99993  0  0  0.135779  0  0.999082  0  0.096045  0  0.124535  0.131156  0  1.000571  0
H  H32  1  0.29456379  0.40781595  0.52111721  1  0  0.110232  0  0.943359  0  0  0.131669  0  1.004833  0  0  0.132904  0  1.004301  0  0.032906  0  0.094152  0.13074  0  1.005344  0
H  H33  1  0.88669728  0.59202310  0.97892567  1  0  0.11045  0  0.943389  0  0  0.132013  0  1.004716  0  0  0.133209  0  1.004238  0  0.065478  0  0.094071  0.131121  0  1.005186  0
H  H34  1  0.70543737  0.59218360  0.47887994  1  0  0.110243  0  0.943355  0  0  0.131679  0  1.00483  0  0  0.132916  0  1.004297  0  0.032648  0  0.09415  0.13075  0  1.005342  0
H  H35  1  0.11331313  0.40797836  0.02107708  1  0  0.110497  0  0.943292  0  0  0.132063  0  1.004616  0  0  0.133262  0  1.004133  0  0.065491  0  0.094107  0.131169  0  1.005088  0
H  H36  1  0.33468818  0.54702822  0.63492692  1  0  0.105088  0  0.965979  0  0  0.122241  0  1.035983  0  0  0.1229  0  1.037601  0  0.070545  0  0.090298  0.121894  0  1.034615  0
H  H37  1  0.78766435  0.45281468  0.86509943  1  0  0.105841  0  0.965036  0  0  0.122859  0  1.035178  0  0  0.123558  0  1.036754  0  0.042575  0  0.090453  0.122474  0  1.033863  0
H  H38  1  0.66531244  0.45297229  0.36507054  1  0  0.105061  0  0.965982  0  0  0.12221  0  1.035996  0  0  0.122873  0  1.037611  0  0.070604  0  0.090281  0.121864  0  1.034628  0
H  H39  1  0.21233372  0.54718487  0.13490341  1  0  0.105888  0  0.965034  0  0  0.122888  0  1.035184  0  0  0.123588  0  1.036754  0  0.042496  0  0.090476  0.122504  0  1.033868  0
H  H40  1  0.38557548  0.56326401  0.51826583  1  0  0.116943  0  0.936003  0  0  0.142939  0  0.988243  0  0  0.144332  0  0.988084  0  0.048884  0  0.097498  0.141851  0  0.988563  0
H  H41  1  0.82219489  0.43659522  0.98179845  1  0  0.116868  0  0.936907  0  0  0.142829  0  0.989058  0  0  0.144223  0  0.988898  0  0.04452  0  0.097311  0.141737  0  0.989395  0
H  H42  1  0.61442514  0.43673650  0.48173163  1  0  0.116969  0  0.935974  0  0  0.142959  0  0.988212  0  0  0.144353  0  0.988052  0  0.048947  0  0.097502  0.141874  0  0.988533  0
H  H43  1  0.17780110  0.56340432  0.01820651  1  0  0.116875  0  0.936876  0  0  0.14283  0  0.989036  0  0  0.144222  0  0.988879  0  0.044414  0  0.097334  0.141737  0  0.989373  0
H  H44  1  0.17329557  0.94007588  0.19182722  1  0  0.424683  0  0.880064  0  0  0.390931  0  0.94701  0  0  0.40341  0  0.929208  0  0.654172  0  0.284645  0.38206  0  0.959647  0
H  H45  1  0.23317666  0.06006494  0.30836954  1  0  0.424235  0  0.880657  0  0  0.390941  0  0.946917  0  0  0.403401  0  0.929116  0  0.654897  0  0.284762  0.382084  0  0.959553  0
H  H46  1  0.82670408  0.05992271  0.80817247  1  0  0.424704  0  0.880034  0  0  0.390943  0  0.946993  0  0  0.403422  0  0.92919  0  0.654259  0  0.284648  0.382071  0  0.959633  0
H  H47  1  0.76682140  0.93993460  0.69162904  1  0  0.424213  0  0.880676  0  0  0.390916  0  0.946944  0  0  0.403375  0  0.929143  0  0.654887  0  0.284751  0.38206  0  0.959578  0
C  C48  1  0.59040422  0.83998078  0.24396700  1  0  0.102228  0  3.730381  0  0  0.106665  0  3.972375  0  0  0.107076  0  3.992375  0  0.481909  0  0.110364  0.106124  0  3.958962  0
C  C49  1  0.75078412  0.15995630  0.25589497  1  0  0.101909  0  3.730413  0  0  0.10532  0  3.97346  0  0  0.105505  0  3.993787  0  0.507268  0  0.109771  0.104902  0  3.959839  0
C  C50  1  0.40959551  0.16001588  0.75602994  1  0  0.102411  0  3.730193  0  0  0.10677  0  3.972272  0  0  0.107182  0  3.992269  0  0.481863  0  0.110406  0.106228  0  3.95886  0
C  C51  1  0.24921801  0.84004517  0.74410564  1  0  0.101924  0  3.730362  0  0  0.105293  0  3.973467  0  0  0.105478  0  3.993792  0  0.507332  0  0.109767  0.104876  0  3.959843  0
C  C52  1  0.43624256  0.81737810  0.23802792  1  0  -0.095197  0  3.658265  0  0  -0.118059  0  3.903992  0  0  -0.120764  0  3.921814  0  -0.008681  0  -0.069456  -0.116201  0  3.892223  0
C  C53  1  0.61916093  0.18245614  0.26184361  1  0  -0.094565  0  3.657728  0  0  -0.116892  0  3.903259  0  0  -0.11956  0  3.921147  0  -0.043934  0  -0.068439  -0.114975  0  3.891448  0
C  C54  1  0.56375717  0.18261856  0.76196830  1  0  -0.095373  0  3.658283  0  0  -0.118153  0  3.90406  0  0  -0.120855  0  3.921878  0  -0.011772  0  -0.069488  -0.116294  0  3.89229  0
C  C55  1  0.38084016  0.81754532  0.73815630  1  0  -0.094575  0  3.657743  0  0  -0.116889  0  3.903285  0  0  -0.119557  0  3.921172  0  -0.043926  0  -0.068451  -0.11497  0  3.891466  0
C  C56  1  0.14540537  0.50168640  0.52376439  1  0  0.091562  0  3.74138  0  0  0.10988  0  3.987815  0  0  0.109033  0  4.012353  0  -0.005906  0  -0.002858  0.110165  0  3.971347  0
C  C57  1  0.64367191  0.49822281  0.97622858  1  0  0.091182  0  3.745409  0  0  0.110231  0  3.990218  0  0  0.109405  0  4.014733  0  0.021489  0  -0.002693  0.110519  0  3.973742  0
C  C58  1  0.85459580  0.49831315  0.47623418  1  0  0.091526  0  3.74137  0  0  0.109879  0  3.987773  0  0  0.109032  0  4.012313  0  -0.005754  0  -0.002856  0.110156  0  3.971319  0
C  C59  1  0.35633310  0.50178442  0.02377531  1  0  0.091126  0  3.7454  0  0  0.110232  0  3.990095  0  0  0.109404  0  4.014608  0  0.021681  0  -0.002693  0.11052  0  3.97362  0
C  C60  1  0.70809994  0.88738787  0.51102776  1  0  0.625045  0  3.908482  0  0  0.570848  0  4.207852  0  0  0.605019  0  4.200352  0  1.583017  0  0.210275  0.547649  0  4.212152  0
C  C61  1  0.82071157  0.11233873  0.98876297  1  0  0.626095  0  3.905607  0  0  0.572018  0  4.204481  0  0  0.606184  0  4.196923  0  1.586841  0  0.210955  0.548847  0  4.208795  0
C  C62  1  0.29189517  0.11260783  0.48897028  1  0  0.625254  0  3.908264  0  0  0.571022  0  4.207666  0  0  0.605194  0  4.20016  0  1.582539  0  0.210343  0.547823  0  4.211968  0
C  C63  1  0.17928752  0.88766081  0.01123560  1  0  0.626118  0  3.90552  0  0  0.572033  0  4.204407  0  0  0.606198  0  4.19685  0  1.586833  0  0.210986  0.548863  0  4.208721  0
C  C64  1  0.12060262  0.54753180  0.45127785  1  0  -0.159495  0  3.720866  0  0  -0.191236  0  3.975918  0  0  -0.193798  0  3.996208  0  0.021373  0  -0.080414  -0.189645  0  3.962662  0
C  C65  1  0.57301568  0.45245909  0.04875134  1  0  -0.159684  0  3.723057  0  0  -0.192158  0  3.978086  0  0  -0.194717  0  3.998348  0  0.050476  0  -0.080917  -0.190566  0  3.964781  0
C  C66  1  0.87939703  0.45246678  0.54872042  1  0  -0.159498  0  3.72094  0  0  -0.191279  0  3.975979  0  0  -0.193844  0  3.996272  0  0.021192  0  -0.080444  -0.189689  0  3.962726  0
C  C67  1  0.42699141  0.54754814  0.95125326  1  0  -0.159644  0  3.723131  0  0  -0.192112  0  3.978133  0  0  -0.194669  0  3.998394  0  0.050314  0  -0.080895  -0.190522  0  3.964829  0
C  C68  1  0.60601115  0.85698156  0.41429649  1  0  0.1037  0  3.739075  0  0  0.106491  0  3.984661  0  0  0.106562  0  4.004287  0  0.482715  0  0.110882  0.106311  0  3.971315  0
C  C69  1  0.74927126  0.14289497  0.08556732  1  0  0.103206  0  3.741564  0  0  0.106168  0  3.986499  0  0  0.106226  0  4.006102  0  0.460338  0  0.110407  0.105939  0  3.973191  0
C  C70  1  0.39398554  0.14301318  0.58569983  1  0  0.103608  0  3.739156  0  0  0.106448  0  3.984683  0  0  0.106518  0  4.004308  0  0.483053  0  0.110872  0.106267  0  3.971336  0
C  C71  1  0.25072935  0.85710553  0.91443227  1  0  0.103223  0  3.741479  0  0  0.106196  0  3.986403  0  0  0.106255  0  4.006004  0  0.460336  0  0.110422  0.105961  0  3.973105  0
C  C72  1  0.36702093  0.81374345  0.32442076  1  0  -0.002704  0  3.684521  0  0  -0.017755  0  3.935783  0  0  -0.01627  0  3.95338  0  -0.058932  0  -0.066078  -0.01855  0  3.923573  0
C  C73  1  0.55357551  0.18615614  0.17547889  1  0  -9.4e-05  0  3.68555  0  0  -0.015306  0  3.936428  0  0  -0.013812  0  3.954081  0  -0.04823  0  -0.065368  -0.016111  0  3.924152  0
C  C74  1  0.63297776  0.18625321  0.67557547  1  0  -0.002617  0  3.68465  0  0  -0.017672  0  3.935853  0  0  -0.016192  0  3.953456  0  -0.055925  0  -0.066034  -0.018466  0  3.923637  0
C  C75  1  0.44642558  0.81384532  0.82452172  1  0  -9.2e-05  0  3.685606  0  0  -0.015315  0  3.936466  0  0  -0.01382  0  3.954118  0  -0.048226  0  -0.065363  -0.016119  0  3.924189  0
C  C76  1  0.97897837  0.54537331  0.42862992  1  0  0.120764  0  3.745425  0  0  0.108183  0  3.993354  0  0  0.111329  0  4.016588  0  0.347689  0  0.092134  0.106209  0  3.977803  0
C  C77  1  0.43358172  0.45471177  0.07141392  1  0  0.120461  0  3.746211  0  0  0.108591  0  3.992717  0  0  0.111742  0  4.015929  0  0.280427  0  0.092274  0.106604  0  3.977208  0
C  C78  1  0.02102177  0.45462624  0.57136794  1  0  0.120756  0  3.74543  0  0  0.108214  0  3.993362  0  0  0.11136  0  4.016595  0  0.347826  0  0.092149  0.106236  0  3.977811  0
C  C79  1  0.56642592  0.54529450  0.92859037  1  0  0.120391  0  3.746336  0  0  0.108509  0  3.992928  0  0  0.111654  0  4.016144  0  0.280158  0  0.092223  0.106523  0  3.977417  0
C  C80  1  0.96639038  0.72293295  0.39571458  1  0  0.185826  0  3.63037  0  0  0.124347  0  3.897153  0  0  0.139137  0  3.907644  0  0.953756  0  0.1478  0.114622  0  3.889893  0
C  C81  1  0.24347229  0.27720402  0.10443689  1  0  0.184023  0  3.632302  0  0  0.123292  0  3.899346  0  0  0.138022  0  3.909829  0  0.987958  0  0.147508  0.113544  0  3.892087  0
C  C82  1  0.03360920  0.27706755  0.60428501  1  0  0.185806  0  3.63024  0  0  0.124352  0  3.897003  0  0  0.139149  0  3.907504  0  0.953927  0  0.147813  0.114627  0  3.889743  0
C  C83  1  0.75652832  0.72279649  0.89555773  1  0  0.184124  0  3.632441  0  0  0.123428  0  3.899533  0  0  0.138161  0  3.910022  0  0.987901  0  0.147607  0.113679  0  3.892271  0
C  C84  1  0.94032407  0.65180934  0.22735407  1  0  0.006292  0  3.757623  0  0  -0.02848  0  4.027061  0  0  -0.025664  0  4.046244  0  0.427281  0  -0.001884  -0.03029  0  4.013932  0
C  C85  1  0.28873897  0.34838433  0.27280000  1  0  0.006407  0  3.757002  0  0  -0.028281  0  4.02675  0  0  -0.025435  0  4.045915  0  0.427661  0  -0.002305  -0.030095  0  4.013607  0
C  C86  1  0.05967854  0.34819309  0.77264543  1  0  0.006323  0  3.757575  0  0  -0.028417  0  4.02703  0  0  -0.025596  0  4.046208  0  0.427427  0  -0.001852  -0.030228  0  4.013901  0
C  C87  1  0.71124889  0.65161137  0.72719592  1  0  0.00648  0  3.757084  0  0  -0.028177  0  4.026783  0  0  -0.025339  0  4.045957  0  0.427961  0  -0.002192  -0.029989  0  4.013637  0
C  C88  1  0.67313094  0.84823418  0.15317879  1  0  0.604008  0  3.94623  0  0  0.550358  0  4.250857  0  0  0.583193  0  4.244367  0  1.602599  0  0.195819  0.528019  0  4.254555  0
C  C89  1  0.82534515  0.15183456  0.34671984  1  0  0.603574  0  3.944392  0  0  0.550097  0  4.249359  0  0  0.582978  0  4.242903  0  1.591226  0  0.196219  0.527752  0  4.253003  0
C  C90  1  0.32687119  0.15176728  0.84682041  1  0  0.603841  0  3.946386  0  0  0.550193  0  4.251057  0  0  0.583028  0  4.244566  0  1.602665  0  0.195784  0.527853  0  4.254754  0
C  C91  1  0.17465809  0.84816499  0.65327945  1  0  0.603484  0  3.944547  0  0  0.550012  0  4.249534  0  0  0.582891  0  4.243076  0  1.591245  0  0.196174  0.527668  0  4.253178  0
C  C92  1  0.45170358  0.83161494  0.41367109  1  0  -0.110365  0  3.664844  0  0  -0.136099  0  3.916213  0  0  -0.13906  0  3.933971  0  -0.067437  0  -0.074445  -0.134139  0  3.90438  0
C  C93  1  0.62037370  0.16832022  0.08624070  1  0  -0.111705  0  3.667101  0  0  -0.137194  0  3.918312  0  0  -0.140238  0  3.935972  0  0.009845  0  -0.074706  -0.135116  0  3.906482  0
C  C94  1  0.54829463  0.16838076  0.58632482  1  0  -0.110438  0  3.664997  0  0  -0.136168  0  3.916325  0  0  -0.139129  0  3.934088  0  -0.067399  0  -0.074489  -0.134203  0  3.904495  0
C  C95  1  0.37962739  0.83168125  0.91375991  1  0  -0.111859  0  3.667141  0  0  -0.137369  0  3.91837  0  0  -0.140412  0  3.936024  0  0.009783  0  -0.074797  -0.135291  0  3.906543  0
C  C96  1  0.94739248  0.55669723  0.25347493  1  0  -0.078463  0  3.677142  0  0  -0.117738  0  3.935764  0  0  -0.116313  0  3.953341  0  0.313166  0  -0.002666  -0.118752  0  3.923843  0
C  C97  1  0.39081683  0.44348683  0.24661140  1  0  -0.077574  0  3.676964  0  0  -0.116847  0  3.935329  0  0  -0.115446  0  3.952908  0  0.321508  0  -0.002231  -0.117838  0  3.923396  0
C  C98  1  0.05260916  0.44330327  0.74652325  1  0  -0.078451  0  3.67698  0  0  -0.117691  0  3.935625  0  0  -0.116267  0  3.953201  0  0.313166  0  -0.002644  -0.118706  0  3.923705  0
C  C99  1  0.60917812  0.55651271  0.75338788  1  0  -0.077542  0  3.676978  0  0  -0.116832  0  3.935352  0  0  -0.115429  0  3.952933  0  0.321514  0  -0.002216  -0.117823  0  3.923418  0
C  C100  1  0.29798630  0.50500294  0.55063765  1  0  -0.332599  0  3.736381  0  0  -0.417254  0  3.976918  0  0  -0.419183  0  3.987193  0  -0.066457  0  -0.237601  -0.415434  0  3.969782  0
C  C101  1  0.79293048  0.49485725  0.94939640  1  0  -0.33357  0  3.73797  0  0  -0.41855  0  3.978332  0  0  -0.420515  0  3.988652  0  -0.079375  0  -0.237671  -0.416713  0  3.97117  0
C  C102  1  0.70201327  0.49499756  0.44936052  1  0  -0.332585  0  3.736265  0  0  -0.417234  0  3.976766  0  0  -0.419166  0  3.987037  0  -0.06633  0  -0.237576  -0.415416  0  3.969635  0
C  C103  1  0.20707309  0.50514710  0.05060870  1  0  -0.333651  0  3.737879  0  0  -0.418634  0  3.978238  0  0  -0.4206  0  3.988555  0  -0.079185  0  -0.237752  -0.416796  0  3.971079  0
N  N104  1  0.67228836  0.86124089  0.33111270  1  0  -0.358506  0  3.306294  0  0  -0.297649  0  3.554948  0  0  -0.313502  0  3.575449  0  -1.22633  0  -0.322332  -0.286325  0  3.540534  0
N  N105  1  0.81136633  0.13867601  0.16873993  1  0  -0.358622  0  3.307989  0  0  -0.297484  0  3.556885  0  0  -0.313263  0  3.577402  0  -1.235113  0  -0.322264  -0.286202  0  3.542465  0
N  N106  1  0.32770985  0.13875481  0.66888392  1  0  -0.358495  0  3.306136  0  0  -0.297627  0  3.554801  0  0  -0.313477  0  3.575299  0  -1.226032  0  -0.322325  -0.286303  0  3.540389  0
N  N107  1  0.18863325  0.86132450  0.83125966  1  0  -0.358586  0  3.307916  0  0  -0.297438  0  3.556825  0  0  -0.313216  0  3.57734  0  -1.235195  0  -0.322252  -0.286155  0  3.542407  0
N  N108  1  0.96408030  0.60382947  0.36069313  1  0  -0.090025  0  3.617641  0  0  0.001671  0  3.827841  0  0  -0.012839  0  3.853339  0  -1.301708  0  -0.230735  0.011251  0  3.810578  0
N  N109  1  0.36021870  0.39632096  0.13938878  1  0  -0.089913  0  3.61982  0  0  0.001747  0  3.829167  0  0  -0.012779  0  3.854698  0  -1.313868  0  -0.230952  0.011337  0  3.811905  0
N  N110  1  0.03591928  0.39617104  0.63930504  1  0  -0.09002  0  3.61767  0  0  0.001613  0  3.827931  0  0  -0.012898  0  3.85343  0  -1.301862  0  -0.230792  0.011193  0  3.81067  0
N  N111  1  0.63978391  0.60368147  0.86061144  1  0  -0.089823  0  3.619721  0  0  0.001796  0  3.829142  0  0  -0.012729  0  3.854675  0  -1.313932  0  -0.23094  0.011386  0  3.81188  0
N  N112  1  0.95247265  0.75411098  0.31661160  1  0  -0.390396  0  3.268908  0  0  -0.31846  0  3.557732  0  0  -0.339539  0  3.573768  0  -1.220347  0  -0.361879  -0.303801  0  3.546159  0
N  N113  1  0.19851052  0.24605482  0.18357045  1  0  -0.39053  0  3.268685  0  0  -0.318632  0  3.557242  0  0  -0.339702  0  3.573296  0  -1.222963  0  -0.361608  -0.304002  0  3.545698  0
N  N114  1  0.04752796  0.24588952  0.68338870  1  0  -0.390431  0  3.2688  0  0  -0.3185  0  3.557616  0  0  -0.339579  0  3.573648  0  -1.22046  0  -0.36191  -0.303841  0  3.546044  0
N  N115  1  0.80148395  0.75394376  0.81642355  1  0  -0.390764  0  3.268796  0  0  -0.31887  0  3.557356  0  0  -0.33994  0  3.573409  0  -1.223155  0  -0.361745  -0.304239  0  3.545813  0
O  O116  1  0.14348079  0.99997840  0.25011469  1  0  -0.869346  0  1.955975  0  0  -0.788058  0  2.165235  0  0  -0.814723  0  2.127244  0  -1.288292  0  -0.58575  -0.768663  0  2.191748  0
O  O117  1  0.85651831  0.00002114  0.74988389  1  0  -0.869327  0  1.955944  0  0  -0.788026  0  2.165206  0  0  -0.814691  0  2.127211  0  -1.288289  0  -0.585736  -0.768633  0  2.191715  0
O  O118  1  0.81561143  0.86856785  0.16534451  1  0  -0.687545  0  2.050681  0  0  -0.611248  0  2.309705  0  0  -0.641638  0  2.297401  0  -1.178955  0  -0.348882  -0.589722  0  2.317381  0
O  O119  1  0.94758372  0.13164024  0.33463444  1  0  -0.686286  0  2.051779  0  0  -0.610009  0  2.310768  0  0  -0.640315  0  2.298317  0  -1.172113  0  -0.348174  -0.588501  0  2.318509  0
O  O120  1  0.18439022  0.13143266  0.83465437  1  0  -0.68751  0  2.050729  0  0  -0.611208  0  2.309752  0  0  -0.641603  0  2.297464  0  -1.179263  0  -0.348865  -0.589682  0  2.317427  0
O  O121  1  0.05241744  0.86835930  0.66536413  1  0  -0.686274  0  2.05176  0  0  -0.609988  0  2.310732  0  0  -0.64029  0  2.298283  0  -1.172109  0  -0.348164  -0.588478  0  2.318473  0
O  O122  1  0.85222028  0.94079089  0.51244791  1  0  -0.660546  0  2.093945  0  0  -0.584306  0  2.360447  0  0  -0.615519  0  2.348427  0  -1.163349  0  -0.325152  -0.562395  0  2.367943  0
O  O123  1  0.91159215  0.05910102  0.98736614  1  0  -0.660575  0  2.093542  0  0  -0.584542  0  2.360577  0  0  -0.615657  0  2.348342  0  -1.172117  0  -0.325374  -0.562689  0  2.368211  0
O  O124  1  0.14777682  0.05920673  0.48755076  1  0  -0.660642  0  2.093998  0  0  -0.584395  0  2.360519  0  0  -0.615607  0  2.348494  0  -1.163253  0  -0.325162  -0.562485  0  2.368017  0
O  O125  1  0.08840599  0.94089660  0.01263182  1  0  -0.660592  0  2.093496  0  0  -0.584545  0  2.36052  0  0  -0.615658  0  2.348285  0  -1.172218  0  -0.32539  -0.562694  0  2.368156  0
O  O126  1  0.60085083  0.83715533  0.07441187  1  0  -0.573346  0  1.960082  0  0  -0.534112  0  2.195255  0  0  -0.55693  0  2.189873  0  -1.166234  0  -0.306134  -0.518225  0  2.198734  0
O  O127  1  0.76410583  0.16286248  0.42547392  1  0  -0.573986  0  1.958598  0  0  -0.534773  0  2.193777  0  0  -0.557581  0  2.188385  0  -1.16891  0  -0.306954  -0.518823  0  2.197162  0
O  O128  1  0.39915322  0.16284998  0.92558642  1  0  -0.573262  0  1.960186  0  0  -0.534018  0  2.195349  0  0  -0.556835  0  2.189969  0  -1.166226  0  -0.306129  -0.518134  0  2.198833  0
O  O129  1  0.23589534  0.83713707  0.57452678  1  0  -0.573937  0  1.958802  0  0  -0.534716  0  2.193947  0  0  -0.55754  0  2.188595  0  -1.168945  0  -0.306931  -0.518768  0  2.197334  0
O  O130  1  0.64537195  0.85963211  0.58263942  1  0  -0.59619  0  1.944942  0  0  -0.545523  0  2.159932  0  0  -0.569409  0  2.150013  0  -1.176423  0  -0.309596  -0.528877  0  2.166578  0
O  O131  1  0.78541490  0.13982541  0.91706408  1  0  -0.597175  0  1.944483  0  0  -0.546324  0  2.159579  0  0  -0.570208  0  2.149611  0  -1.177012  0  -0.309782  -0.529683  0  2.166269  0
O  O132  1  0.35462460  0.14036648  0.41735814  1  0  -0.596271  0  1.944759  0  0  -0.545606  0  2.159774  0  0  -0.569495  0  2.149855  0  -1.17644  0  -0.30965  -0.528959  0  2.16642  0
O  O133  1  0.21458371  0.86017317  0.08293490  1  0  -0.597169  0  1.94442  0  0  -0.546324  0  2.159525  0  0  -0.570209  0  2.149561  0  -1.176906  0  -0.309791  -0.529679  0  2.166209  0
