# generated using pymatgen
data_CoH20C25(NO)4
_symmetry_space_group_name_H-M   'P 1'
_cell_length_a   9.94050075
_cell_length_b   10.97626558
_cell_length_c   14.14916276
_cell_angle_alpha   73.71133555
_cell_angle_beta   78.58651977
_cell_angle_gamma   81.01248308
_symmetry_Int_Tables_number   1
_chemical_formula_structural   CoH20C25(NO)4
_chemical_formula_sum   'Co2 H40 C50 N8 O8'
_cell_volume   1444.19193494
_cell_formula_units_Z   2
loop_
 _symmetry_equiv_pos_site_id
 _symmetry_equiv_pos_as_xyz
  1  'x, y, z'
loop_
 _atom_site_type_symbol
 _atom_site_label
 _atom_site_symmetry_multiplicity
 _atom_site_fract_x
 _atom_site_fract_y
 _atom_site_fract_z
 _atom_site_occupancy
 _atom_site_hle17_ddec_charge
 _atom_site_hle17_ddec_spin_density
 _atom_site_hle17_ddec_sum_bond_order
 _atom_site_hle17_magmom
 _atom_site_hse06_10hf_ddec_charge
 _atom_site_hse06_10hf_ddec_spin_density
 _atom_site_hse06_10hf_ddec_sum_bond_order
 _atom_site_hse06_10hf_magmom
 _atom_site_hse06_ddec_charge
 _atom_site_hse06_ddec_spin_density
 _atom_site_hse06_ddec_sum_bond_order
 _atom_site_hse06_magmom
 _atom_site_pbe_cm5_charge
 _atom_site_pbe_ddec_charge
 _atom_site_pbe_ddec_spin_density
 _atom_site_pbe_ddec_sum_bond_order
 _atom_site_pbe_magmom
Co  Co0  1  0.44079178  0.80210070  0.19274471  1  0.963594  -2.870142  2.032449  -2.531  0.905287  -2.832579  2.491899  -2.584  0.996787  -2.880973  2.40295  -2.674  0.678282  0.834253  -2.788115  2.558392  -2.501
Co  Co1  1  0.55920875  0.19790297  0.80725046  1  0.963458  2.870143  2.032517  2.531  0.90511  2.832585  2.491988  2.584  0.996637  2.880989  2.403038  2.674  0.678245  0.834109  2.788111  2.558453  2.501
H  H2  1  0.05868347  0.67467774  0.99332070  1  0.10645  -0.000174  0.941981  0.0  0.118857  -0.000138  0.997382  0.0  0.12235  -9.2e-05  0.995405  0.0  0.106625  0.116452  -0.000191  0.998757  0.0
H  H3  1  0.94131649  0.32532308  0.00667162  1  0.106427  0.000175  0.942089  0.0  0.118862  0.000138  0.99745  0.0  0.122355  9.1e-05  0.99547  0.0  0.106648  0.116457  0.000191  0.998825  0.0
H  H4  1  0.11991073  0.60634324  0.16392034  1  0.084442  0.000118  0.968562  0.0  0.094518  8.1e-05  1.030321  0.0  0.096608  7.3e-05  1.030336  0.0  0.096131  0.093118  8.5e-05  1.030251  0.0
H  H5  1  0.88008478  0.39365095  0.83607394  1  0.084469  -0.000119  0.968418  0.0  0.094486  -8.1e-05  1.030246  0.0  0.096574  -7.3e-05  1.030269  0.0  0.096114  0.093087  -8.5e-05  1.030172  0.0
H  H6  1  0.94720581  0.62141639  0.31201447  1  0.086659  -5e-06  0.95731  0.0  0.099564  1.9e-05  1.014228  0.0  0.102271  1.6e-05  1.013406  0.0  0.098736  0.097534  2.4e-05  1.015068  0.0
H  H7  1  0.05279002  0.37856539  0.68798104  1  0.086614  7e-06  0.957329  0.0  0.099563  -1.9e-05  1.014208  0.0  0.102271  -1.6e-05  1.013385  0.0  0.098705  0.097531  -2.4e-05  1.015049  0.0
H  H8  1  0.70165973  0.71326184  0.29471748  1  0.112195  2.6e-05  0.964151  0.0  0.120403  -0.000125  1.02927  0.0  0.123605  -6.1e-05  1.027892  0.0  0.105946  0.118054  -0.000201  1.030331  0.0
H  H9  1  0.29832885  0.28670000  0.70528461  1  0.112302  -2.6e-05  0.964195  0.0  0.120472  0.000125  1.029336  0.0  0.123679  6e-05  1.027947  0.0  0.105966  0.118116  0.000201  1.030403  0.0
H  H10  1  0.56776419  0.86713366  0.95474850  1  0.123873  -0.000222  0.924169  -0.001  0.131576  -8.1e-05  0.986559  0.0  0.134574  -6.5e-05  0.9824  0.0  0.147198  0.129019  -8.1e-05  0.990286  -0.001
H  H11  1  0.43223483  0.13285762  0.04524317  1  0.12386  0.000225  0.924113  0.001  0.131661  8.1e-05  0.986409  0.0  0.134662  6.5e-05  0.982244  0.0  0.147214  0.129099  8.2e-05  0.990134  0.001
H  H12  1  0.94268807  0.80683572  0.85322168  1  0.080355  -5.1e-05  0.916792  0.0  0.098559  -5e-05  0.97235  0.0  0.099192  -2.9e-05  0.972238  0.0  0.115505  0.09787  -5.1e-05  0.972764  0.0
H  H13  1  0.05731758  0.19315931  0.14677194  1  0.080302  5e-05  0.916795  0.0  0.098509  5e-05  0.972421  0.0  0.099144  2.9e-05  0.97231  0.0  0.115495  0.097818  5.1e-05  0.972846  0.0
H  H14  1  0.78116956  0.88166987  0.82010771  1  0.103364  -3.9e-05  0.921473  0.0  0.118729  -0.000109  0.979659  0.0  0.12063  -0.000136  0.978619  0.0  0.120655  0.117013  -9.3e-05  0.980711  0.0
H  H15  1  0.21883957  0.11832225  0.17988401  1  0.10337  3.9e-05  0.921365  0.0  0.118737  0.000109  0.979626  0.0  0.12063  0.000136  0.978602  0.0  0.120685  0.117065  9.3e-05  0.980624  0.0
H  H16  1  0.87329075  0.68724215  0.75373447  1  0.083115  -3.1e-05  0.924777  0.0  0.105593  -2.9e-05  0.977544  0.0  0.10625  -2e-05  0.978226  0.0  0.102544  0.104973  -3.7e-05  0.977259  0.0
H  H17  1  0.12671281  0.31275196  0.24626242  1  0.083188  3e-05  0.924776  0.0  0.105629  2.9e-05  0.977542  0.0  0.106286  2e-05  0.978221  0.0  0.102581  0.105005  3.7e-05  0.977261  0.0
H  H18  1  0.86382747  0.59009122  0.87685237  1  0.076322  4e-06  0.946329  0.0  0.091939  -2e-06  1.011579  0.0  0.092653  -1e-06  1.012407  0.0  0.093487  0.091478  8e-06  1.010908  0.0
H  H19  1  0.13618245  0.40989996  0.12314653  1  0.076369  -6e-06  0.946357  0.0  0.091981  1e-06  1.011581  0.0  0.092693  2e-06  1.012412  0.0  0.093497  0.091521  -8e-06  1.01091  0.0
H  H20  1  0.60769203  0.63954677  0.90722263  1  0.074105  3.5e-05  0.9135  0.0  0.092452  2.6e-05  0.970284  0.0  0.092641  1.8e-05  0.970304  0.0  0.113345  0.092131  2.7e-05  0.970498  0.0
H  H21  1  0.39231864  0.36043677  0.09277855  1  0.073975  -3.4e-05  0.91364  0.0  0.092274  -2.6e-05  0.97043  0.0  0.092455  -1.9e-05  0.970466  0.0  0.113317  0.091952  -2.7e-05  0.970645  0.0
H  H22  1  0.61254343  0.75611886  0.79191149  1  0.099677  -0.0  0.942797  0.0  0.112717  1.8e-05  1.007523  0.0  0.114943  -3e-06  1.005629  0.0  0.114081  0.110923  5.3e-05  1.008989  0.0
H  H23  1  0.38746387  0.24387523  0.20809275  1  0.099683  1e-06  0.942879  0.0  0.112665  -1.8e-05  1.007621  0.0  0.114916  1e-06  1.005699  0.0  0.114077  0.110871  -5.3e-05  1.009087  0.0
H  H24  1  0.64525691  0.33851357  0.57349651  1  0.119712  -0.000133  0.966775  0.0  0.127687  -0.000135  1.030011  0.0  0.131877  -0.000165  1.02682  0.0  0.106803  0.124754  -8.3e-05  1.03196  0.0
H  H25  1  0.35476025  0.66149370  0.42648320  1  0.119741  0.000134  0.966679  0.0  0.127697  0.000135  1.029941  0.0  0.131886  0.000166  1.026748  0.0  0.106816  0.124765  8.3e-05  1.031892  0.0
H  H26  1  0.74059443  0.50531109  0.42353089  1  0.08779  6e-06  0.957233  0.0  0.09967  2e-06  1.014832  0.0  0.102153  5e-06  1.014433  0.0  0.098943  0.09786  -2e-06  1.015249  0.0
H  H27  1  0.25943030  0.49470472  0.57646307  1  0.087809  -8e-06  0.95726  0.0  0.099673  -2e-06  1.014875  0.0  0.102156  -5e-06  1.014479  0.0  0.098961  0.097892  2e-06  1.015261  0.0
H  H28  1  0.79462460  0.70985935  0.44139688  1  0.089453  -1.5e-05  0.94994  0.0  0.103816  1e-05  1.003873  0.0  0.106253  8e-06  1.003209  0.0  0.102594  0.10202  1.3e-05  1.004463  0.0
H  H29  1  0.20536747  0.29016066  0.55860917  1  0.089433  1.7e-05  0.949903  0.0  0.10375  -1e-05  1.00389  0.0  0.106185  -9e-06  1.003229  0.0  0.102597  0.101964  -1.3e-05  1.00448  0.0
H  H30  1  0.75706723  0.75628167  0.60709636  1  0.108003  0.000171  0.943762  0.0  0.1213  0.00015  0.996873  0.0  0.124037  0.000103  0.996281  0.0  0.108936  0.119345  0.000198  0.997336  0.0
H  H31  1  0.24291519  0.24373272  0.39291133  1  0.108031  -0.000171  0.943736  0.0  0.121269  -0.00015  0.996928  0.0  0.124003  -0.000103  0.996341  0.0  0.108912  0.119319  -0.000198  0.997389  0.0
H  H32  1  0.57457750  0.41735103  0.91130501  1  0.103274  0.000175  0.930783  0.001  0.113018  0.000138  0.993124  0.0  0.115981  9.3e-05  0.988435  0.0  0.139973  0.110729  0.00017  0.996727  0.0
H  H33  1  0.42541996  0.58263645  0.08868554  1  0.103331  -0.000175  0.930685  -0.001  0.113035  -0.000138  0.993061  0.0  0.115997  -9.2e-05  0.988375  0.0  0.13997  0.110747  -0.00017  0.996662  0.0
H  H34  1  0.01692381  0.94983373  0.18014321  1  0.096538  -1.3e-05  0.939308  0.0  0.108674  -1.7e-05  0.994739  0.0  0.11211  2.1e-05  0.993036  0.0  0.103482  0.106252  -5.7e-05  0.995841  0.0
H  H35  1  0.98306389  0.05017301  0.81987896  1  0.096704  1.5e-05  0.93928  0.0  0.108852  1.7e-05  0.994682  0.0  0.112287  -2.2e-05  0.992978  0.0  0.103554  0.10643  5.7e-05  0.995785  0.0
H  H36  1  0.20552101  0.94456067  0.88078613  1  0.106841  1.6e-05  0.934429  0.0  0.117468  -2e-05  0.991909  0.0  0.121204  -1.2e-05  0.989725  0.0  0.105055  0.114792  -3.2e-05  0.993594  0.0
H  H37  1  0.79447279  0.05544886  0.11922977  1  0.106944  -1.5e-05  0.934554  0.0  0.117508  2e-05  0.992082  0.0  0.121244  1.1e-05  0.989894  0.0  0.10505  0.114831  3.2e-05  0.993767  0.0
H  H38  1  0.54071218  0.16626642  0.33994410  1  0.095517  2e-05  0.949259  0.0  0.10407  2e-05  1.010446  0.0  0.1079  2.1e-05  1.008029  0.0  0.099977  0.101328  9e-06  1.012231  0.0
H  H39  1  0.45928089  0.83373735  0.66005758  1  0.095515  -1.8e-05  0.949347  0.0  0.104119  -2e-05  1.010497  0.0  0.107958  -2.1e-05  1.008067  0.0  0.099982  0.101376  -9e-06  1.012286  0.0
H  H40  1  0.44296561  0.78789031  0.49912611  1  0.097146  -7.5e-05  0.953798  0.0  0.108295  -4.5e-05  1.012795  0.0  0.111606  -1e-06  1.011023  0.0  0.101373  0.105879  -8.9e-05  1.01408  0.0
H  H41  1  0.55702043  0.21211164  0.50087749  1  0.097139  7.4e-05  0.953829  0.0  0.108271  4.5e-05  1.012842  0.0  0.111583  2e-06  1.011067  0.0  0.101336  0.105852  8.9e-05  1.014125  0.0
C  C42  1  0.74464404  0.74264498  0.13443136  1  0.148433  0.000754  3.826049  0.002  0.149451  -0.001364  4.073683  -0.002  0.152911  -0.000922  4.09987  -0.001  0.086027  0.14687  -0.001979  4.055791  -0.002
C  C43  1  0.25536064  0.25734052  0.86556231  1  0.148271  -0.00078  3.826045  -0.002  0.14935  0.001364  4.073582  0.002  0.152809  0.000919  4.099777  0.001  0.086034  0.146769  0.001978  4.055696  0.002
C  C44  1  0.84422288  0.73116944  0.04980790  1  0.098144  -0.002747  3.781826  -0.004  0.088153  -0.001418  4.023225  -0.002  0.091434  -0.001032  4.046817  -0.002  0.092017  0.085883  -0.001752  4.007703  -0.003
C  C45  1  0.15576854  0.26884102  0.95019110  1  0.098074  0.002776  3.781598  0.004  0.088149  0.001419  4.022872  0.002  0.091431  0.001027  4.046461  0.002  0.092042  0.08588  0.001753  4.007356  0.003
C  C46  1  0.98044576  0.68027785  0.05823803  1  -0.149621  0.00082  3.779146  0.001  -0.170636  -2.2e-05  4.037815  0.0  -0.173612  4.1e-05  4.057983  0.0  -0.096655  -0.168981  -7e-06  4.024661  0.0
C  C47  1  0.01954451  0.31971451  0.94176362  1  -0.149475  -0.00086  3.779354  -0.001  -0.170539  2.3e-05  4.037971  0.0  -0.173518  -4.6e-05  4.058148  0.0  -0.096648  -0.168883  7e-06  4.024816  0.0
C  C48  1  0.01375112  0.64220160  0.15418354  1  -0.067821  -0.001528  3.792889  -0.002  -0.083693  -0.000274  4.051304  0.0  -0.085417  -0.000214  4.073946  0.0  -0.098356  -0.082523  -0.000423  4.036034  -0.001
C  C49  1  0.98624813  0.35779161  0.84582041  1  -0.067912  0.001569  3.792854  0.002  -0.08374  0.000275  4.051314  0.0  -0.085467  0.00022  4.073957  0.0  -0.098451  -0.082566  0.000423  4.036042  0.001
C  C50  1  0.91508354  0.65249866  0.23879198  1  -0.08731  0.001538  3.803879  0.002  -0.103251  0.00045  4.057391  0.001  -0.105271  0.000376  4.079453  0.0  -0.102313  -0.101889  0.000505  4.042432  0.001
C  C51  1  0.08490560  0.34748702  0.76120629  1  -0.087384  -0.001582  3.803544  -0.002  -0.10335  -0.00045  4.057057  -0.001  -0.105371  -0.000374  4.07912  0.0  -0.102292  -0.101984  -0.000505  4.042095  -0.001
C  C52  1  0.77906128  0.70269932  0.23037145  1  -0.146238  -0.002173  3.748034  -0.003  -0.165983  -0.000978  3.997081  -0.001  -0.169596  -0.000769  4.018309  -0.001  -0.092856  -0.163293  -0.001267  3.982578  -0.001
C  C53  1  0.22093767  0.29728337  0.76962067  1  -0.146219  0.002214  3.747758  0.003  -0.165975  0.000979  3.996862  0.001  -0.169589  0.000766  4.01809  0.001  -0.092859  -0.163282  0.001268  3.982359  0.001
C  C54  1  0.64367663  0.82295706  0.00339359  1  0.21877  0.00678  3.608994  0.008  0.157043  -0.000764  3.887027  -0.001  0.177463  -0.000727  3.896037  -0.001  0.167546  0.142164  8.9e-05  3.882015  0.0
C  C55  1  0.35632170  0.17704090  0.99659671  1  0.218635  -0.006788  3.608754  -0.008  0.156799  0.000767  3.886822  0.001  0.177224  0.000729  3.895824  0.001  0.167479  0.141933  -8.7e-05  3.881807  0.0
C  C56  1  0.83304222  0.79391322  0.86338122  1  0.005415  -0.000403  3.62075  -0.001  -0.055197  -0.000301  3.879379  0.0  -0.050747  -0.000254  3.889221  0.0  -0.047249  -0.057963  -0.000333  3.872909  0.0
C  C57  1  0.16696705  0.20608749  0.13660863  1  0.00552  0.000406  3.620767  0.001  -0.055258  0.0003  3.879649  0.0  -0.050815  0.000256  3.889514  0.0  -0.047336  -0.058053  0.000333  3.873166  0.0
C  C58  1  0.81593271  0.67720427  0.82996634  1  -0.149776  4.5e-05  3.675005  0.0  -0.198933  6e-05  3.947055  0.0  -0.200856  4.7e-05  3.960043  0.0  -0.16118  -0.197459  9.2e-05  3.937921  0.0
C  C59  1  0.18407062  0.32278985  0.17003553  1  -0.14998  -4.4e-05  3.675121  0.0  -0.199021  -5.9e-05  3.947059  0.0  -0.20094  -4.8e-05  3.96005  0.0  -0.161173  -0.197547  -9.2e-05  3.937936  0.0
C  C60  1  0.66433782  0.66459784  0.83066172  1  0.00224  0.000501  3.612498  0.001  -0.060345  0.000398  3.876991  0.0  -0.056042  0.000289  3.887879  0.0  -0.05201  -0.062984  0.000519  3.869571  0.001
C  C61  1  0.33566864  0.33538671  0.16933973  1  0.002494  -0.0005  3.612742  -0.001  -0.05991  -0.000398  3.876974  0.0  -0.055625  -0.000286  3.887855  0.0  -0.051905  -0.062549  -0.000519  3.86955  -0.001
C  C62  1  0.68285688  0.57114535  0.68266862  1  0.096769  0.002395  3.778827  0.004  0.087765  0.001221  4.017974  0.002  0.090933  0.000836  4.041188  0.001  0.090858  0.085597  0.001565  4.002567  0.002
C  C63  1  0.31715500  0.42885440  0.31733315  1  0.096841  -0.002415  3.77864  -0.004  0.087726  -0.001221  4.01798  -0.002  0.090862  -0.000836  4.041238  -0.001  0.090803  0.085558  -0.001564  4.00257  -0.002
C  C64  1  0.65156267  0.45390212  0.67327785  1  0.150269  -0.000438  3.814574  -0.001  0.153175  0.001377  4.056902  0.002  0.156806  0.00097  4.082014  0.001  0.087866  0.150339  0.001863  4.040043  0.002
C  C65  1  0.34843736  0.54609774  0.32671537  1  0.150277  0.000458  3.813919  0.001  0.153154  -0.001375  4.05638  -0.002  0.156786  -0.00097  4.081495  -0.001  0.08783  0.150323  -0.001863  4.039514  -0.002
C  C66  1  0.67151005  0.42828969  0.57977259  1  -0.136732  0.001346  3.738294  0.002  -0.155043  0.000206  3.982109  0.0  -0.158077  4.6e-05  4.002049  0.0  -0.089621  -0.152864  0.000521  3.968617  0.001
C  C67  1  0.32850303  0.57171289  0.42021852  1  -0.136813  -0.001378  3.737889  -0.002  -0.155073  -0.000204  3.981706  0.0  -0.158099  -4.4e-05  4.001637  0.0  -0.089649  -0.152896  -0.00052  3.968223  -0.001
C  C68  1  0.72403317  0.52191957  0.49759976  1  -0.083044  -0.001069  3.800859  -0.001  -0.098592  -0.000131  4.054394  0.0  -0.101159  -5.8e-05  4.077629  0.0  -0.099696  -0.096797  -0.000193  4.038748  0.0
C  C69  1  0.27597991  0.47808874  0.50239931  1  -0.083051  0.001103  3.800854  0.001  -0.098586  0.00013  4.054386  0.0  -0.101155  5.6e-05  4.077619  0.0  -0.099699  -0.096814  0.000193  4.038738  0.0
C  C70  1  0.75542173  0.63815413  0.50765980  1  -0.070901  0.001017  3.794367  0.001  -0.088369  -3.5e-05  4.051151  0.0  -0.089956  -7.6e-05  4.073602  0.0  -0.095632  -0.087199  0.000149  4.035969  0.0
C  C71  1  0.24458500  0.36185617  0.49233958  1  -0.070912  -0.001049  3.794425  -0.001  -0.088324  3.4e-05  4.051183  0.0  -0.089909  7.4e-05  4.073629  0.0  -0.095649  -0.087172  -0.000148  4.036028  0.0
C  C72  1  0.73537016  0.66520881  0.60025309  1  -0.150759  -0.00049  3.785876  -0.001  -0.170606  0.000204  4.042771  0.0  -0.173901  0.000166  4.063721  0.0  -0.095114  -0.168426  0.000227  4.02853  0.0
C  C73  1  0.26462838  0.33479968  0.39975117  1  -0.150766  0.000521  3.785971  0.001  -0.17053  -0.000202  4.0429  0.0  -0.173815  -0.000164  4.063857  0.0  -0.095063  -0.168355  -0.000227  4.028667  0.0
C  C74  1  0.60274505  0.45006343  0.83091346  1  0.197052  -0.006362  3.666349  -0.008  0.133185  0.000831  3.945391  0.001  0.152553  0.000709  3.955111  0.001  0.158109  0.119585  0.000313  3.938842  0.0
C  C75  1  0.39726434  0.54993537  0.16907819  1  0.197063  0.006374  3.666252  0.008  0.133257  -0.000829  3.945284  -0.001  0.152627  -0.000707  3.954996  -0.001  0.158135  0.119656  -0.000311  3.938727  0.0
C  C76  1  0.25421346  0.87840686  0.06915087  1  0.624591  0.002755  3.92844  0.006  0.581197  -0.001713  4.229578  0.0  0.617169  -0.001097  4.226019  0.0  0.196671  0.555555  -0.002225  4.230709  0.0
C  C77  1  0.74578284  0.12160930  0.93086118  1  0.624908  -0.002754  3.928101  -0.006  0.581511  0.001712  4.229228  0.0  0.61749  0.001097  4.225655  0.0  0.196644  0.555868  0.002224  4.230375  0.0
C  C78  1  0.12313900  0.94209121  0.03359619  1  -0.049379  -0.002048  3.761081  -0.003  -0.02751  -0.000203  3.993584  0.0  -0.03323  0.000173  4.014922  0.0  -0.017484  -0.02429  -0.00048  3.980211  -0.001
C  C79  1  0.87684997  0.05792505  0.96641953  1  -0.049914  0.002051  3.76101  0.003  -0.028047  0.000205  3.993533  0.0  -0.03377  -0.000169  4.014869  0.0  -0.017536  -0.024824  0.000482  3.98016  0.001
C  C80  1  0.00840225  0.97348248  0.10129549  1  -0.079007  -1.8e-05  3.750251  0.0  -0.103217  -0.000572  4.006091  -0.001  -0.103739  -0.000508  4.026166  -0.001  -0.086941  -0.102543  -0.000839  3.992504  -0.001
C  C81  1  0.99159861  0.02652792  0.89872011  1  -0.078984  1.5e-05  3.750308  0.0  -0.103205  0.000572  4.006189  0.001  -0.103728  0.000506  4.026262  0.001  -0.086921  -0.102531  0.000839  3.992602  0.001
C  C82  1  0.11443007  0.96883258  0.93205835  1  -0.083474  -0.000695  3.73994  -0.001  -0.108694  -0.001076  3.99548  -0.001  -0.110296  -0.000873  4.015654  -0.001  -0.086904  -0.107536  -0.001268  3.982157  -0.002
C  C83  1  0.88555029  0.03118474  0.06796451  1  -0.083324  0.000692  3.739458  0.001  -0.108453  0.001076  3.9949  0.001  -0.110051  0.000871  4.015064  0.001  -0.086755  -0.107295  0.001269  3.981579  0.002
C  C84  1  0.47525015  0.95130118  0.31274974  1  0.627241  0.002036  3.92298  0.006  0.587342  -0.002188  4.216651  -0.001  0.623553  -0.001313  4.211529  0.0  0.200423  0.56147  -0.002731  4.21923  -0.001
C  C85  1  0.52474624  0.04870159  0.68724894  1  0.627318  -0.002036  3.922873  -0.006  0.587469  0.002186  4.216539  0.001  0.623678  0.001312  4.211414  0.0  0.200445  0.561597  0.00273  4.219123  0.001
C  C86  1  0.48923710  0.97513442  0.40965690  1  -0.060473  -0.003677  3.762858  -0.005  -0.038047  -0.001077  3.991213  -0.002  -0.044309  -0.000558  4.013331  -0.001  -0.021267  -0.034212  -0.00183  3.977013  -0.003
C  C87  1  0.51075421  0.02487320  0.59035122  1  -0.060244  0.003678  3.762335  0.005  -0.037948  0.001076  3.990874  0.002  -0.044212  0.000585  4.012992  0.001  -0.021079  -0.034111  0.00183  3.976672  0.003
C  C88  1  0.52299674  0.09407006  0.41062078  1  -0.086832  0.000471  3.771642  0.001  -0.109569  -0.000516  4.023902  -0.001  -0.111701  -0.00041  4.045674  -0.001  -0.090774  -0.108034  -0.000697  4.009215  -0.001
C  C89  1  0.47698894  0.90593381  0.58938598  1  -0.086891  -0.000472  3.771193  -0.001  -0.109679  0.000516  4.023575  0.001  -0.111818  0.000396  4.045341  0.001  -0.090848  -0.108146  0.000697  4.008893  0.001
C  C90  1  0.46685847  0.88101763  0.50003086  1  -0.077625  0.000786  3.754248  0.001  -0.100719  -0.000415  4.003565  0.0  -0.101757  -0.000345  4.024614  0.0  -0.090274  -0.100057  -0.000291  3.98951  0.0
C  C91  1  0.53313069  0.11898712  0.49996470  1  -0.077686  -0.000787  3.75436  -0.001  -0.100739  0.000416  4.003694  0.0  -0.101776  0.00033  4.024737  0.0  -0.090271  -0.100074  0.000292  3.989634  0.0
N  N92  1  0.62012542  0.79921153  0.10250646  1  -0.436733  -0.041395  3.307685  -0.059  -0.399469  -0.029831  3.636427  -0.033  -0.430969  -0.024194  3.645657  -0.025  -0.365874  -0.376522  -0.035107  3.63065  -0.041
N  N93  1  0.37986867  0.20078649  0.89748715  1  -0.436451  0.041393  3.30776  0.059  -0.399199  0.029827  3.636513  0.033  -0.4307  0.024196  3.64576  0.025  -0.365819  -0.376257  0.035103  3.630732  0.041
N  N94  1  0.77624831  0.78341959  0.96825272  1  -0.119184  -0.000782  3.512029  -0.002  -0.028699  -0.001291  3.732799  -0.002  -0.045047  -0.000991  3.756368  -0.002  -0.240768  -0.017872  -0.001695  3.717268  -0.003
N  N95  1  0.22375238  0.21658123  0.03174588  1  -0.119105  0.000781  3.512075  0.002  -0.028584  0.001291  3.73287  0.002  -0.044928  0.000992  3.756443  0.002  -0.240675  -0.01776  0.001696  3.717349  0.003
N  N96  1  0.64944990  0.56559305  0.78392506  1  -0.119387  0.001138  3.522481  0.002  -0.029579  0.001897  3.747569  0.003  -0.045502  0.001504  3.770449  0.003  -0.239873  -0.019143  0.002363  3.73223  0.004
N  N97  1  0.35055534  0.43439436  0.21607379  1  -0.11948  -0.00114  3.522023  -0.002  -0.029698  -0.001898  3.747159  -0.003  -0.045613  -0.001507  3.770047  -0.003  -0.239897  -0.019264  -0.002364  3.731818  -0.004
N  N98  1  0.60191977  0.38023030  0.76785884  1  -0.41789  0.041278  3.279939  0.063  -0.379113  0.029744  3.595974  0.037  -0.40879  0.024353  3.605298  0.03  -0.357409  -0.35737  0.034855  3.589665  0.044
N  N99  1  0.39809045  0.61976371  0.23212668  1  -0.418049  -0.041282  3.279778  -0.063  -0.379262  -0.029743  3.595841  -0.037  -0.408927  -0.024352  3.605152  -0.03  -0.35744  -0.357517  -0.034852  3.589518  -0.044
O  O100  1  0.46438503  0.83280184  0.31701641  1  -0.633417  -0.060407  2.074447  -0.098  -0.595034  -0.043257  2.357183  -0.065  -0.639165  -0.032605  2.34405  -0.048  -0.331861  -0.559965  -0.053965  2.363836  -0.081
O  O101  1  0.53562642  0.16719503  0.68297967  1  -0.633445  0.060405  2.07439  0.098  -0.595041  0.043255  2.357092  0.065  -0.639184  0.0326  2.343963  0.048  -0.331903  -0.559979  0.053966  2.363747  0.081
O  O102  1  0.47341834  0.04071829  0.23516126  1  -0.606234  -0.005289  1.899949  -0.008  -0.572944  -0.007242  2.122757  -0.011  -0.598016  -0.00515  2.113646  -0.008  -0.320077  -0.554651  -0.009677  2.128594  -0.015
O  O103  1  0.52658731  0.95928343  0.76483798  1  -0.606277  0.005293  1.899821  0.008  -0.572981  0.007244  2.122585  0.011  -0.598051  0.005149  2.113473  0.008  -0.320064  -0.554689  0.009679  2.128424  0.015
O  O104  1  0.27647134  0.90333723  0.14922059  1  -0.630731  -0.063372  2.072929  -0.101  -0.598146  -0.044447  2.359804  -0.065  -0.64326  -0.032935  2.348481  -0.047  -0.33192  -0.56213  -0.055695  2.365262  -0.082
O  O105  1  0.72352100  0.09666564  0.85079905  1  -0.630776  0.06337  2.07286  0.101  -0.598207  0.044445  2.359785  0.065  -0.643325  0.032933  2.348446  0.047  -0.331919  -0.562196  0.055694  2.365251  0.082
O  O106  1  0.33612204  0.80633548  0.02395210  1  -0.624788  -0.008804  1.890163  -0.014  -0.590105  -0.010686  2.114521  -0.017  -0.618025  -0.00775  2.107238  -0.013  -0.327192  -0.568542  -0.014335  2.118175  -0.023
O  O107  1  0.66389546  0.19370713  0.97604467  1  -0.624917  0.008798  1.889907  0.014  -0.590202  0.010681  2.114225  0.017  -0.618126  0.007747  2.106936  0.013  -0.327175  -0.568644  0.014328  2.117884  0.023
