# generated using pymatgen
data_Al4H27C60N5(Cl2O15)2
_symmetry_space_group_name_H-M   'P 1'
_cell_length_a   6.70791444
_cell_length_b   17.47731775
_cell_length_c   19.16058870
_cell_angle_alpha   70.72127818
_cell_angle_beta   88.46194196
_cell_angle_gamma   91.25399885
_symmetry_Int_Tables_number   1
_chemical_formula_structural   Al4H27C60N5(Cl2O15)2
_chemical_formula_sum   'Al4 H27 C60 N5 Cl4 O30'
_cell_volume   2118.46270300
_cell_formula_units_Z   1
loop_
 _symmetry_equiv_pos_site_id
 _symmetry_equiv_pos_as_xyz
  1  'x, y, z'
loop_
 _atom_site_type_symbol
 _atom_site_label
 _atom_site_symmetry_multiplicity
 _atom_site_fract_x
 _atom_site_fract_y
 _atom_site_fract_z
 _atom_site_occupancy
 _atom_site_pbe_bader_charge
 _atom_site_pbe_bader_spin_density
 _atom_site_pbe_cm5_charge
 _atom_site_pbe_ddec_charge
 _atom_site_pbe_ddec_spin_density
 _atom_site_pbe_ddec_sum_bond_order
 _atom_site_pbe_magmom
Al  Al0  1  0.90364423  0.49863324  0.49950027  1  2.503204  0  0.398751  1.655031  0  2.564361  0
Al  Al1  1  0.40540757  0.50211995  0.49690302  1  2.504107  0  0.40162  1.650441  0  2.557263  0
Al  Al2  1  0.31021494  0.00193798  0.00229353  1  2.502766  0  0.397917  1.642576  0  2.546889  0
Al  Al3  1  0.81096344  0.99558030  0.99767870  1  2.500383  0  0.395293  1.647684  0  2.543096  0
H  H4  1  0.87232079  0.63527197  0.78095794  1  0.082175  0  0.109515  0.112363  0  0.994223  0
H  H5  1  0.88606871  0.56465602  0.68853196  1  0.09767  0  0.113249  0.115071  0  1.006994  0
H  H6  1  0.37324079  0.78906243  0.66538604  1  0.076836  0  0.106153  0.118173  0  1.005063  0
H  H7  1  0.42919790  0.78990148  0.78024619  1  0.106564  0  0.114054  0.12293  0  1.001404  0
H  H8  1  0.77185756  0.83205247  0.88286252  1  0.125838  0  0.110879  0.100332  0  1.106454  0
H  H9  1  0.79092420  0.74723261  0.80097788  1  0.080917  0  0.105065  0.103082  0  1.010181  0
H  H10  1  0.50617887  0.69813092  0.05884450  1  0.153217  0  0.113157  0.126778  0  1.005046  0
H  H11  1  0.76762003  0.81908576  0.43986023  1  0.102481  0  0.112015  0.126467  0  0.994768  0
H  H12  1  0.02440578  0.72119918  0.43537150  1  0.064331  0  0.111607  0.117954  0  0.997579  0
H  H13  1  0.42709684  0.58216378  0.29371105  1  0.16017  0  0.119557  0.138024  0  1.021924  0
H  H14  1  0.25577832  0.79817114  0.06074864  1  0.098133  0  0.108554  0.108956  0  1.027448  0
H  H15  1  0.02646254  0.44430090  0.80639497  1  0.11884  0  0.108927  0.117591  0  1.017084  0
H  H16  1  0.42998069  0.29307764  0.56821671  1  0.08987  0  0.104158  0.104301  0  1.030948  0
H  H17  1  0.23075506  0.17205583  0.57214458  1  0.060954  0  0.104115  0.099945  0  0.988226  0
H  H18  1  0.18424532  0.05564803  0.69055411  1  0.066761  0  0.103192  0.099887  0  0.990279  0
H  H19  1  0.34431268  0.06008338  0.80294733  1  0.111518  0  0.103479  0.108982  0  1.042735  0
H  H20  1  0.79313724  0.20599525  0.92809505  1  0.155589  0  0.11966  0.131341  0  1.026817  0
H  H21  1  0.85673178  0.44028485  0.69384488  1  0.102563  0  0.108432  0.112703  0  1.033433  0
H  H22  1  0.31185378  0.25102288  0.31702870  1  0.072571  0  0.099924  0.106525  0  1.006724  0
H  H23  1  0.35182258  0.33223193  0.40030915  1  0.105367  0  0.100736  0.102452  0  1.025944  0
H  H24  1  0.91745706  0.31873944  0.23457270  1  0.096724  0  0.095311  0.10926  0  1.048607  0
H  H25  1  0.86792155  0.16724981  0.26125315  1  0.095197  0  0.117496  0.130688  0  0.979042  0
H  H26  1  0.32071207  0.19200322  0.08739936  1  0.180879  0  0.116709  0.139314  0  1.008927  0
H  H27  1  0.66766469  0.60771627  0.46306784  1  0.645649  0  0.347299  0.427584  0  0.864684  0
H  H28  1  0.15074399  0.39535955  0.51204572  1  0.591171  0  0.353686  0.432708  0  0.849417  0
H  H29  1  0.54715917  0.90061170  0.99371743  1  0.647637  0  0.331012  0.405989  0  0.915726  0
H  H30  1  0.05261974  0.08885875  0.01789232  1  0.634398  0  0.343458  0.425062  0  0.87813  0
C  C31  1  0.63369018  0.38857597  0.61309214  1  1.577282  0  0.273032  0.654523  0  4.089669  0
C  C32  1  0.65960664  0.41819833  0.41799422  1  1.557843  0  0.267511  0.661196  0  4.07163  0
C  C33  1  0.17004171  0.61608651  0.38481464  1  1.59836  0  0.274453  0.652925  0  4.077693  0
C  C34  1  0.14729248  0.58135946  0.57869767  1  1.606315  0  0.26593  0.647359  0  4.101407  0
C  C35  1  0.98568258  0.65353941  0.73625177  1  -0.039437  0  -0.087207  -0.137234  0  3.977743  0
C  C36  1  0.99584975  0.61254265  0.68551476  1  -0.033093  0  -0.073984  -0.064859  0  3.978838  0
C  C37  1  0.14583033  0.63061018  0.62938731  1  0.009174  0  -0.013337  -0.100176  0  3.930396  0
C  C38  1  0.28427202  0.69421866  0.62413086  1  0.063996  0  0.02586  0.145451  0  4.027742  0
C  C39  1  0.27053819  0.73741153  0.67362874  1  -0.000303  0  -0.09511  -0.205059  0  3.960169  0
C  C40  1  0.12319750  0.71735653  0.73058472  1  -0.001623  0  -0.002451  0.084547  0  4.009502  0
C  C41  1  0.28178614  0.79955614  0.80052356  1  0.015014  0  -0.08013  -0.187373  0  3.937459  0
C  C42  1  0.26380048  0.84495004  0.84742562  1  0.152379  0  0.089728  0.066505  0  3.987915  0
C  C43  1  0.08084144  0.86127248  0.87526294  1  0.053559  0  -0.005552  -0.088313  0  3.940464  0
C  C44  1  0.91272380  0.82343064  0.85807413  1  -0.014034  0  -0.073884  -0.054664  0  3.965385  0
C  C45  1  0.92599834  0.77544419  0.81323431  1  -0.028652  0  -0.080162  -0.123476  0  3.943697  0
C  C46  1  0.11011731  0.76435912  0.78171597  1  0.010064  0  0.010868  0.106441  0  3.97702  0
C  C47  1  0.76379649  0.84495869  0.25531359  1  0.13908  0  0.034171  0.061864  0  3.965508  0
C  C48  1  0.70830718  0.85078571  0.32351271  1  0.232942  0  0.072802  0.020879  0  3.913608  0
C  C49  1  0.81038763  0.80940673  0.38832533  1  0.056686  0  -0.08319  -0.115718  0  4.003717  0
C  C50  1  0.95203638  0.75580214  0.38512409  1  0.000866  0  -0.083313  -0.106863  0  3.971092  0
C  C51  1  0.01438710  0.74664257  0.31631209  1  0.014437  0  0.010184  0.08131  0  3.945388  0
C  C52  1  0.94231257  0.80182869  0.24805857  1  0.018823  0  0.010549  0.02044  0  3.884412  0
C  C53  1  0.15012075  0.68649661  0.31474863  1  0.008829  0  0.004758  -0.109614  0  3.849337  0
C  C54  1  0.24184584  0.68724452  0.24736439  1  -0.030136  0  0.00673  0.073795  0  3.971692  0
C  C55  1  0.19499336  0.75092826  0.18017858  1  0.001382  0  0.004142  0.051609  0  3.966279  0
C  C56  1  0.04992701  0.80839005  0.18130805  1  0.02035  0  0.00752  -0.088621  0  3.810634  0
C  C57  1  0.38573419  0.62975557  0.24388441  1  0.116776  0  -0.068019  -0.150772  0  3.894006  0
C  C58  1  0.47886398  0.63666771  0.17736492  1  0.087932  0  0.077363  0.076118  0  3.950509  0
C  C59  1  0.43174972  0.69687151  0.11034515  1  0.013811  0  -0.082419  -0.124332  0  3.984526  0
C  C60  1  0.29289033  0.75235375  0.11244041  1  -0.035464  0  -0.080827  -0.098557  0  3.953381  0
C  C61  1  0.41028887  0.24285914  0.62001513  1  -0.065814  0  -0.091259  -0.133537  0  3.974543  0
C  C62  1  0.29915658  0.17516699  0.62219779  1  -0.049854  0  -0.087107  -0.073415  0  4.035051  0
C  C63  1  0.27395024  0.10895018  0.68919266  1  0.037112  0  -0.089398  -0.078151  0  4.027482  0
C  C64  1  0.36334505  0.11119376  0.75208527  1  -0.097721  0  -0.085439  -0.115395  0  3.951998  0
C  C65  1  0.48224034  0.18000739  0.75228344  1  -0.01565  0  0.006518  0.066443  0  3.947368  0
C  C66  1  0.50313388  0.24842263  0.68451440  1  -0.005139  0  0.006723  0.069981  0  3.961591  0
C  C67  1  0.58420580  0.18240906  0.81518045  1  0.002418  0  0.008803  -0.101701  0  3.849576  0
C  C68  1  0.70280739  0.25118971  0.81302169  1  -0.000787  0  0.006297  0.067597  0  3.95766  0
C  C69  1  0.72100330  0.32003832  0.74560634  1  0.044989  0  0.005705  0.065271  0  3.964937  0
C  C70  1  0.61966612  0.31727182  0.68304726  1  -0.025551  0  0.00092  -0.117989  0  3.889103  0
C  C71  1  0.80214953  0.25603279  0.87626169  1  0.033648  0  -0.064546  -0.135921  0  3.892692  0
C  C72  1  0.91407556  0.32399764  0.87229042  1  0.161631  0  0.074302  0.069779  0  3.952574  0
C  C73  1  0.93502965  0.39202184  0.80665127  1  -0.033219  0  -0.088064  -0.133587  0  4.007885  0
C  C74  1  0.83963224  0.38935227  0.74516069  1  -0.016939  0  -0.083199  -0.109926  0  3.955048  0
C  C75  1  0.45321776  0.28271814  0.31728422  1  -0.019556  0  -0.095552  -0.145493  0  4.007897  0
C  C76  1  0.47604434  0.32754569  0.36442029  1  -0.027446  0  -0.084526  -0.071417  0  3.999368  0
C  C77  1  0.65502143  0.36986854  0.36679057  1  0.066115  0  -0.019186  -0.10838  0  3.925617  0
C  C78  1  0.81528211  0.36499120  0.31936810  1  0.045712  0  0.027805  0.157993  0  4.0049  0
C  C79  1  0.79312619  0.31977823  0.27193708  1  0.000638  0  -0.094541  -0.201736  0  3.940899  0
C  C80  1  0.61307582  0.27856641  0.27003926  1  0.003874  0  -0.001479  0.104071  0  3.995841  0
C  C81  1  0.74840955  0.17404854  0.22243900  1  0.027587  0  -0.075517  -0.168791  0  3.946066  0
C  C82  1  0.74572132  0.12711387  0.17657678  1  0.175974  0  0.091573  0.07604  0  3.918341  0
C  C83  1  0.59013073  0.13065167  0.12817910  1  0.045556  0  0.00035  -0.060867  0  3.914986  0
C  C84  1  0.44167722  0.18661975  0.12527569  1  0.083032  0  -0.072658  -0.127683  0  3.919722  0
C  C85  1  0.44754887  0.23615599  0.16925599  1  0.007672  0  0.023669  0.105616  0  3.994994  0
C  C86  1  0.59950014  0.22978211  0.22014530  1  0.053023  0  0.005902  0.04492  0  3.947738  0
C  C87  1  0.57587617  0.07833846  0.08061658  1  1.599912  0  0.275783  0.653402  0  4.086116  0
C  C88  1  0.56994321  0.11138000  0.88553694  1  1.598968  0  0.271882  0.65005  0  4.087076  0
C  C89  1  0.06198727  0.91643086  0.92025372  1  1.613125  0  0.272948  0.647124  0  4.092691  0
C  C90  1  0.04978007  0.88201036  0.11157299  1  1.624242  0  0.268425  0.646256  0  4.089631  0
N  N91  1  0.53123795  0.89459886  0.33415683  1  0.391286  0  0.053291  0.524432  0  4.195153  0
N  N92  1  0.63547136  0.57943876  0.17573888  1  0.37958  0  0.057829  0.517971  0  4.198664  0
N  N93  1  0.01748768  0.32545785  0.93862563  1  0.390719  0  0.055418  0.517697  0  4.194995  0
N  N94  1  0.91855298  0.07428152  0.18327605  1  0.425726  0  0.065457  0.524652  0  4.203332  0
N  N95  1  0.44972724  0.87267862  0.87091747  1  0.382204  0  0.060241  0.515314  0  4.207844  0
Cl  Cl96  1  0.59955278  0.87292109  0.18567024  1  -0.10868  0  0.075481  0.045053  0  1.840809  0
Cl  Cl97  1  0.04178740  0.41580484  0.31303449  1  -0.173213  0  0.025788  -0.034134  0  1.61375  0
Cl  Cl98  1  0.46567471  0.72693863  0.55428468  1  -0.181221  0  0.015061  -0.048738  0  1.577932  0
Cl  Cl99  1  0.26772501  0.30834739  0.15704905  1  -0.190741  0  0.019324  -0.055562  0  1.539745  0
O  O100  1  0.48984767  0.43417169  0.44135645  1  -1.26614  0  -0.243424  -0.615539  0  2.347184  0
O  O101  1  0.80674174  0.41017647  0.58324587  1  -1.255382  0  -0.229966  -0.585556  0  2.338896  0
O  O102  1  0.97717862  0.55543197  0.56639727  1  -1.248865  0  -0.234342  -0.58841  0  2.341097  0
O  O103  1  0.82788367  0.43867507  0.43639502  1  -1.251684  0  -0.235808  -0.60083  0  2.404168  0
O  O104  1  0.00315805  0.58799927  0.41734538  1  -1.258088  0  -0.227203  -0.594585  0  2.391347  0
O  O105  1  0.47109034  0.42112026  0.58856656  1  -1.243782  0  -0.228952  -0.578788  0  2.338132  0
O  O106  1  0.65887131  0.54966104  0.48854612  1  -1.449208  0  -0.449262  -0.992825  0  2.194446  0
O  O107  1  0.34027852  0.58874201  0.40608008  1  -1.251767  0  -0.229579  -0.576205  0  2.31348  0
O  O108  1  0.31445960  0.56894650  0.55255598  1  -1.245199  0  -0.230663  -0.586802  0  2.396157  0
O  O109  1  0.15307353  0.45246477  0.50653629  1  -1.395126  0  -0.448843  -0.99355  0  2.199321  0
O  O110  1  0.73413894  0.08524176  0.91475019  1  -1.254711  0  -0.229123  -0.583904  0  2.357331  0
O  O111  1  0.40703974  0.06996606  0.05494144  1  -1.246447  0  -0.22261  -0.56941  0  2.349079  0
O  O112  1  0.21818480  0.92001688  0.09525023  1  -1.23688  0  -0.229816  -0.579809  0  2.356615  0
O  O113  1  0.39612661  0.08425991  0.91101386  1  -1.25141  0  -0.228719  -0.577521  0  2.351802  0
O  O114  1  0.22235689  0.93473863  0.94602574  1  -1.258856  0  -0.232703  -0.602069  0  2.425397  0
O  O115  1  0.73616871  0.04672639  0.06814321  1  -1.25893  0  -0.235956  -0.612875  0  2.436399  0
O  O116  1  0.55351205  0.94914776  0.00810059  1  -1.450837  0  -0.454597  -0.989258  0  2.199781  0
O  O117  1  0.89008848  0.94094191  0.92930649  1  -1.235545  0  -0.221472  -0.559986  0  2.355902  0
O  O118  1  0.89532051  0.89882093  0.07370174  1  -1.259129  0  -0.235943  -0.595616  0  2.423147  0
O  O119  1  0.06070703  0.04777885  0.99382285  1  -1.431711  0  -0.449755  -0.980213  0  2.155717  0
O  O120  1  0.43636349  0.86450574  0.39428387  1  -0.464223  0  -0.15545  -0.366524  0  1.916318  0
O  O121  1  0.48900107  0.95806273  0.28544711  1  -0.431976  0  -0.128323  -0.329413  0  1.963075  0
O  O122  1  0.71153978  0.58442752  0.11452558  1  -0.461424  0  -0.145773  -0.34293  0  1.857435  0
O  O123  1  0.68350612  0.53013270  0.23553256  1  -0.468286  0  -0.131645  -0.342189  0  1.981988  0
O  O124  1  0.11119255  0.38887582  0.93489736  1  -0.455766  0  -0.14857  -0.34782  0  1.861734  0
O  O125  1  0.00684557  0.26344396  0.99439459  1  -0.491169  0  -0.142744  -0.352639  0  1.921229  0
O  O126  1  0.05177767  0.09693485  0.13448614  1  -0.456313  0  -0.096005  -0.298151  0  2.023278  0
O  O127  1  0.92418526  0.01405325  0.23953282  1  -0.429673  0  -0.116712  -0.316885  0  1.940373  0
O  O128  1  0.50749133  0.82931633  0.93228684  1  -0.475991  0  -0.100091  -0.305767  0  1.994619  0
O  O129  1  0.54000621  0.93261529  0.82818534  1  -0.406333  0  -0.079973  -0.270696  0  1.944929  0
