# generated using pymatgen
data_ZnCuH20C14(NO3)4
_symmetry_space_group_name_H-M   'P 1'
_cell_length_a   7.22240322
_cell_length_b   8.49964430
_cell_length_c   9.32926579
_cell_angle_alpha   101.25245915
_cell_angle_beta   107.30081343
_cell_angle_gamma   110.74570568
_symmetry_Int_Tables_number   1
_chemical_formula_structural   ZnCuH20C14(NO3)4
_chemical_formula_sum   'Zn1 Cu1 H20 C14 N4 O12'
_cell_volume   481.51402666
_cell_formula_units_Z   1
loop_
 _symmetry_equiv_pos_site_id
 _symmetry_equiv_pos_as_xyz
  1  'x, y, z'
loop_
 _atom_site_type_symbol
 _atom_site_label
 _atom_site_symmetry_multiplicity
 _atom_site_fract_x
 _atom_site_fract_y
 _atom_site_fract_z
 _atom_site_occupancy
 _atom_site_pbe_cm5_charge
 _atom_site_pbe_ddec_charge
 _atom_site_pbe_ddec_spin_density
 _atom_site_pbe_ddec_sum_bond_order
 _atom_site_pbe_magmom
Zn  Zn0  1  0.99999470  0.50000214  0.50000103  1  0.658818  0.90879  -7.7e-05  2.14601  0.0
Cu  Cu1  1  0.99999778  0.00000099  0.00000062  1  0.743269  0.72894  -0.707035  2.206337  -0.541
H  H2  1  0.26300225  0.36914115  0.43809487  1  0.29302  0.373116  -1.6e-05  0.973762  0.0
H  H3  1  0.73698517  0.63085679  0.56190895  1  0.293002  0.373088  -1.6e-05  0.97383  0.0
H  H4  1  0.31955455  0.54949089  0.40166279  1  0.298048  0.382661  -1e-06  0.958718  0.0
H  H5  1  0.68043938  0.45050845  0.59834168  1  0.298146  0.382871  -1e-06  0.95851  0.0
H  H6  1  0.99131278  0.71652539  0.84198932  1  0.291647  0.293024  -0.000302  0.966609  0.0
H  H7  1  0.00867604  0.28347255  0.15800838  1  0.291659  0.293013  -0.000302  0.96663  0.0
H  H8  1  0.13935926  0.76535750  0.03509914  1  0.294029  0.292869  -0.000259  0.980459  0.0
H  H9  1  0.86063679  0.23464317  0.96490177  1  0.294014  0.292816  -0.00026  0.980549  0.0
H  H10  1  0.58169298  0.89982899  0.88634709  1  0.289289  0.276939  -0.000289  0.988173  0.0
H  H11  1  0.41829581  0.10017162  0.11365536  1  0.289282  0.276972  -0.000289  0.988163  0.0
H  H12  1  0.67556859  0.88986132  0.06769651  1  0.296447  0.287301  1.4e-05  0.950982  0.0
H  H13  1  0.32442676  0.11013800  0.93230293  1  0.296445  0.287292  1.4e-05  0.950989  0.0
H  H14  1  0.83761617  0.64877443  0.09225626  1  0.102698  0.085185  3.3e-05  1.019756  0.0
H  H15  1  0.16237624  0.35122755  0.90774834  1  0.102696  0.085141  3.3e-05  1.019882  0.0
H  H16  1  0.76618708  0.48955752  0.90539780  1  0.099142  0.078853  -0.002908  1.002122  -0.004
H  H17  1  0.23380169  0.51044308  0.09460251  1  0.099161  0.078871  -0.002908  1.002092  -0.004
H  H18  1  0.47153508  0.58688676  0.90248923  1  0.10695  0.086479  -0.002564  0.978553  -0.003
H  H19  1  0.52845657  0.41311385  0.09750637  1  0.106967  0.086477  -0.002564  0.978591  -0.003
H  H20  1  0.57640553  0.63893120  0.76040904  1  0.10665  0.085102  0.000175  0.998547  0.0
H  H21  1  0.42359481  0.36107215  0.23959116  1  0.106661  0.085128  0.000175  0.998531  0.0
C  C22  1  0.26946705  0.86896174  0.59964885  1  0.094067  0.153766  0.000928  4.157448  0.0
C  C23  1  0.73054378  0.13103110  0.40035617  1  0.094031  0.153711  0.000929  4.157629  0.0
C  C24  1  0.11014245  0.82523156  0.44057440  1  0.098702  0.164991  -0.000383  4.123388  0.0
C  C25  1  0.88986551  0.17475589  0.55941722  1  0.098707  0.165069  -0.000383  4.123302  0.0
C  C26  1  0.14959041  0.99009526  0.40136779  1  0.102461  0.180019  0.001621  4.166913  0.001
C  C27  1  0.85043619  0.00990028  0.59861449  1  0.10244  0.179997  0.001623  4.16667  0.001
C  C28  1  0.34540405  0.13316131  0.53697703  1  0.110654  0.178278  -0.000169  4.096942  0.0
C  C29  1  0.65460793  0.86684215  0.46302370  1  0.110739  0.178399  -0.000169  4.096887  0.0
C  C30  1  0.41768498  0.05990108  0.66247175  1  0.100825  0.166465  0.000483  4.191059  0.0
C  C31  1  0.58233651  0.94010113  0.33753199  1  0.100877  0.16649  0.000483  4.191015  0.0
C  C32  1  0.80504709  0.62916100  0.96575071  1  -0.08238  -0.022632  -0.001692  3.897521  0.0
C  C33  1  0.19493951  0.37083825  0.03424672  1  -0.082407  -0.022595  -0.001692  3.897623  0.0
C  C34  1  0.61732688  0.66902048  0.88865563  1  -0.075155  -0.001286  -0.001433  3.879756  0.0
C  C35  1  0.38266833  0.33098416  0.11134256  1  -0.075155  -0.001294  -0.001433  3.879635  0.0
N  N36  1  0.99965926  0.75687161  0.95609359  1  -0.644618  -0.556432  -0.070518  3.390293  -0.087
N  N37  1  0.00033312  0.24313035  0.04390670  1  -0.644623  -0.556396  -0.070516  3.390531  -0.087
N  N38  1  0.68381282  0.86236751  0.95851988  1  -0.639614  -0.550777  -0.070497  3.40829  -0.087
N  N39  1  0.31617817  0.13763178  0.04148070  1  -0.639607  -0.550798  -0.070496  3.40825  -0.087
O  O40  1  0.26846797  0.75435862  0.66831982  1  -0.270085  -0.388163  1.3e-05  2.276726  0.0
O  O41  1  0.73152589  0.24564336  0.33168403  1  -0.270168  -0.388287  1.3e-05  2.276487  0.0
O  O42  1  0.96282397  0.66867584  0.35961913  1  -0.269378  -0.382422  -0.000286  2.267488  0.0
O  O43  1  0.03719453  0.33132901  0.64038225  1  -0.26942  -0.38255  -0.000286  2.26705  0.0
O  O44  1  0.04009744  0.01170802  0.28202384  1  -0.287637  -0.431852  0.001214  2.273136  -0.001
O  O45  1  0.95993070  0.98828757  0.71796952  1  -0.287602  -0.431822  0.001214  2.272693  -0.001
O  O46  1  0.42802499  0.29328394  0.54346148  1  -0.267342  -0.406261  -7e-05  2.326031  0.0
O  O47  1  0.57198132  0.70671685  0.45654928  1  -0.26733  -0.406193  -7e-05  2.325816  0.0
O  O48  1  0.56794558  0.14367541  0.79804537  1  -0.285227  -0.413599  0.00051  2.190504  0.0
O  O49  1  0.43205470  0.85633061  0.20195637  1  -0.285255  -0.413649  0.000511  2.190219  0.0
O  O50  1  0.19449868  0.44151648  0.39140232  1  -0.564222  -0.750423  -5.2e-05  2.218175  0.0
O  O51  1  0.80549232  0.55848281  0.60859933  1  -0.564321  -0.750684  -5.2e-05  2.218066  0.0
