# generated using pymatgen
data_MnH6C9N2O5
_symmetry_space_group_name_H-M   'P 1'
_cell_length_a   6.97760422
_cell_length_b   9.40916689
_cell_length_c   14.51929152
_cell_angle_alpha   104.19885360
_cell_angle_beta   90.00014568
_cell_angle_gamma   90.00005270
_symmetry_Int_Tables_number   1
_chemical_formula_structural   MnH6C9N2O5
_chemical_formula_sum   'Mn4 H24 C36 N8 O20'
_cell_volume   924.12019215
_cell_formula_units_Z   4
loop_
 _symmetry_equiv_pos_site_id
 _symmetry_equiv_pos_as_xyz
  1  'x, y, z'
loop_
 _atom_site_type_symbol
 _atom_site_label
 _atom_site_symmetry_multiplicity
 _atom_site_fract_x
 _atom_site_fract_y
 _atom_site_fract_z
 _atom_site_occupancy
 _atom_site_pbe_cm5_charge
 _atom_site_pbe_ddec_charge
 _atom_site_pbe_ddec_spin_density
 _atom_site_pbe_ddec_sum_bond_order
 _atom_site_pbe_magmom
Mn  Mn0  1  0.81119279  0.38894461  0.02879222  1  0.623797  1.002838  4.694806  2.257194  4.45
Mn  Mn1  1  0.31119154  0.61105864  0.47120859  1  0.623775  1.002848  4.694825  2.257198  4.45
Mn  Mn2  1  0.18880702  0.61105253  0.97120811  1  0.623789  1.002829  4.6948  2.257178  4.45
Mn  Mn3  1  0.68881113  0.38894726  0.52879385  1  0.623778  1.002821  4.694784  2.257211  4.45
H  H4  1  0.09825366  0.54378849  0.15145999  1  0.298759  0.388814  0.002484  0.945015  0.003
H  H5  1  0.59825383  0.45621451  0.34853984  1  0.298762  0.388838  0.002484  0.944976  0.003
H  H6  1  0.90174471  0.45620975  0.84854053  1  0.298751  0.388812  0.002484  0.945016  0.003
H  H7  1  0.40174741  0.54378592  0.65146103  1  0.298764  0.388839  0.002484  0.944974  0.003
H  H8  1  0.98869116  0.43157496  0.20228868  1  0.292218  0.384177  0.001217  0.964401  0.002
H  H9  1  0.48869180  0.56842632  0.29770997  1  0.292217  0.384199  0.001217  0.964375  0.002
H  H10  1  0.01130864  0.56842437  0.79771132  1  0.292212  0.384182  0.001218  0.964401  0.002
H  H11  1  0.51130944  0.43157520  0.70229039  1  0.29224  0.384237  0.001217  0.964324  0.002
H  H12  1  0.77461083  0.73484270  0.78984113  1  0.312791  0.295055  0.000258  0.996672  0.0
H  H13  1  0.27461780  0.26515501  0.71016060  1  0.312758  0.294976  0.000258  0.996731  0.0
H  H14  1  0.22538467  0.26515555  0.21015732  1  0.312773  0.295027  0.000258  0.996672  0.0
H  H15  1  0.72538631  0.73484652  0.28984044  1  0.312802  0.295043  0.000258  0.996614  0.0
H  H16  1  0.75413778  0.04072035  0.79683032  1  0.110878  0.130707  -2e-06  1.003048  0.0
H  H17  1  0.25414413  0.95927623  0.70317051  1  0.110916  0.130762  -2e-06  1.003132  0.0
H  H18  1  0.24585773  0.95927679  0.20316864  1  0.110944  0.130787  -2e-06  1.003106  0.0
H  H19  1  0.74585997  0.04072639  0.29683002  1  0.110935  0.130794  -2e-06  1.003106  0.0
H  H20  1  0.13292702  0.99290521  0.96399400  1  0.11162  0.127173  -0.000259  1.015602  0.0
H  H21  1  0.63293501  0.00709232  0.53600821  1  0.111636  0.12711  -0.000259  1.015734  0.0
H  H22  1  0.86707135  0.00709191  0.03600909  1  0.111621  0.127095  -0.000259  1.015715  0.0
H  H23  1  0.36707196  0.99290921  0.46399283  1  0.11161  0.127125  -0.000259  1.015687  0.0
H  H24  1  0.57459096  0.55760877  0.85925320  1  0.141429  0.095223  0.00042  1.057242  0.0
H  H25  1  0.07459635  0.44238979  0.64074704  1  0.141411  0.0952  0.00042  1.057221  0.0
H  H26  1  0.42540741  0.44238838  0.14074507  1  0.141427  0.095184  0.00042  1.057248  0.0
H  H27  1  0.92540776  0.55761393  0.35925366  1  0.14143  0.095215  0.00042  1.05723  0.0
C  C28  1  0.56100872  0.28761004  0.83812035  1  0.234349  0.621029  0.006868  4.169236  0.006
C  C29  1  0.06101168  0.71238632  0.66187952  1  0.234312  0.620966  0.006866  4.169455  0.006
C  C30  1  0.43898966  0.71238711  0.16187929  1  0.234368  0.621041  0.006867  4.169264  0.006
C  C31  1  0.93898956  0.28761629  0.33812376  1  0.234347  0.620973  0.006866  4.169336  0.006
C  C32  1  0.49808309  0.14949733  0.86371095  1  -0.011813  -0.056226  0.004206  3.992876  0.003
C  C33  1  0.99808548  0.85049957  0.63628678  1  -0.011819  -0.056207  0.004207  3.992908  0.003
C  C34  1  0.50191242  0.85049873  0.13628576  1  -0.011783  -0.056242  0.004206  3.992901  0.003
C  C35  1  0.00191576  0.14949977  0.36371253  1  -0.011837  -0.056261  0.004206  3.993092  0.003
C  C36  1  0.61910441  0.02978000  0.83219259  1  -0.087056  -0.187125  0.000382  3.95993  0.0
C  C37  1  0.11911059  0.97021641  0.66781011  1  -0.08704  -0.187188  0.000382  3.96016  0.0
C  C38  1  0.38088966  0.97021385  0.16780652  1  -0.087013  -0.187109  0.000382  3.960231  0.0
C  C39  1  0.88089208  0.02978840  0.33219146  1  -0.087015  -0.187142  0.000382  3.960217  0.0
C  C40  1  0.56054191  0.89689409  0.84877275  1  0.10189  0.153241  0.003792  4.038349  0.003
C  C41  1  0.06055123  0.10310117  0.65122694  1  0.10182  0.153193  0.003793  4.038329  0.003
C  C42  1  0.43944929  0.10309869  0.15122275  1  0.101773  0.153122  0.003793  4.038442  0.003
C  C43  1  0.93944857  0.89690035  0.34877410  1  0.101773  0.153108  0.003793  4.038488  0.003
C  C44  1  0.38686064  0.88054114  0.89610096  1  0.090661  0.141141  0.00409  4.033557  0.005
C  C45  1  0.88686625  0.11945451  0.60389919  1  0.090701  0.141218  0.00409  4.033245  0.005
C  C46  1  0.61313343  0.11945382  0.10389627  1  0.090689  0.1412  0.004089  4.033283  0.005
C  C47  1  0.11313642  0.88055030  0.39610169  1  0.090719  0.141208  0.004089  4.033249  0.005
C  C48  1  0.26621561  0.00112547  0.92670395  1  -0.076045  -0.153986  0.003845  3.931216  0.003
C  C49  1  0.76621929  0.99887223  0.57329639  1  -0.076063  -0.153932  0.003845  3.931175  0.003
C  C50  1  0.73378133  0.99887058  0.07329415  1  -0.076039  -0.15392  0.003845  3.931174  0.003
C  C51  1  0.23378482  0.00113149  0.42670363  1  -0.076025  -0.153974  0.003845  3.931127  0.003
C  C52  1  0.32272502  0.13621612  0.91064489  1  -0.023472  -0.086195  0.001574  3.979758  0.001
C  C53  1  0.82272288  0.86378164  0.58935828  1  -0.023455  -0.086184  0.001573  3.979641  0.001
C  C54  1  0.67727765  0.86378212  0.08935631  1  -0.023504  -0.086204  0.001573  3.979623  0.001
C  C55  1  0.17728122  0.13622099  0.41064156  1  -0.023458  -0.086081  0.001573  3.979552  0.001
C  C56  1  0.20150881  0.26892236  0.94847498  1  0.224622  0.599496  0.019454  4.175264  0.017
C  C57  1  0.70151061  0.73107635  0.55152682  1  0.224628  0.599553  0.019457  4.175354  0.017
C  C58  1  0.79849099  0.73107587  0.05152691  1  0.224653  0.599613  0.019453  4.175281  0.017
C  C59  1  0.29849206  0.26892738  0.44847251  1  0.224603  0.599484  0.019454  4.175348  0.017
C  C60  1  0.53539564  0.67042611  0.86319865  1  0.171008  0.210535  0.01392  3.918863  0.011
C  C61  1  0.03539943  0.32957021  0.63680187  1  0.170958  0.210493  0.01392  3.919043  0.011
C  C62  1  0.46460273  0.32957104  0.13680031  1  0.170978  0.210573  0.013919  3.918757  0.011
C  C63  1  0.96460324  0.67043351  0.36319883  1  0.170979  0.210521  0.013919  3.91896  0.011
N  N64  1  0.64861642  0.76219009  0.82908158  1  -0.371655  -0.253788  0.005124  3.592941  0.006
N  N65  1  0.14862314  0.23780636  0.67091979  1  -0.37161  -0.253687  0.005124  3.592983  0.006
N  N66  1  0.35138052  0.23780596  0.17091651  1  -0.371665  -0.253744  0.005124  3.592777  0.006
N  N67  1  0.85138096  0.76219735  0.32908298  1  -0.371675  -0.253724  0.005124  3.592987  0.006
N  N68  1  0.37633117  0.73532927  0.90433094  1  -0.351345  -0.386858  0.037299  3.422594  0.009
N  N69  1  0.87633692  0.26466747  0.59566869  1  -0.351323  -0.386855  0.037297  3.422479  0.009
N  N70  1  0.62366434  0.26466678  0.09566715  1  -0.351313  -0.386893  0.037302  3.422476  0.009
N  N71  1  0.12366432  0.73533625  0.40433202  1  -0.351315  -0.386865  0.037301  3.422431  0.009
O  O72  1  0.70430591  0.35820799  0.88140671  1  -0.298378  -0.569257  0.038125  2.344829  0.024
O  O73  1  0.20429566  0.64178416  0.61859128  1  -0.298368  -0.569266  0.038126  2.34489  0.024
O  O74  1  0.29569819  0.64178476  0.11859292  1  -0.298397  -0.569238  0.038125  2.344734  0.024
O  O75  1  0.79570271  0.35821518  0.38140803  1  -0.298393  -0.569235  0.038123  2.344845  0.024
O  O76  1  0.47861494  0.31916955  0.76783771  1  -0.29912  -0.543307  0.004991  2.265907  0.006
O  O77  1  0.97861476  0.68082951  0.73216242  1  -0.299097  -0.543248  0.004991  2.265909  0.006
O  O78  1  0.52138630  0.68082979  0.23216229  1  -0.299148  -0.543347  0.004991  2.265879  0.006
O  O79  1  0.02138504  0.31917312  0.26783673  1  -0.299128  -0.5433  0.004991  2.265772  0.006
O  O80  1  0.28051455  0.39418533  0.95901330  1  -0.301161  -0.562388  0.051165  2.372877  0.032
O  O81  1  0.78051183  0.60580911  0.54098515  1  -0.301146  -0.562395  0.051171  2.373045  0.032
O  O82  1  0.71948526  0.60581182  0.04098566  1  -0.301155  -0.562404  0.051164  2.372931  0.032
O  O83  1  0.21948081  0.39419133  0.45901296  1  -0.30115  -0.562422  0.051166  2.373031  0.032
O  O84  1  0.02827891  0.24759884  0.96966054  1  -0.315266  -0.564316  0.056072  2.345667  0.039
O  O85  1  0.52827919  0.75239965  0.53034308  1  -0.315286  -0.564376  0.056073  2.345693  0.039
O  O86  1  0.97172089  0.75239938  0.03034272  1  -0.315296  -0.564406  0.056071  2.345679  0.039
O  O87  1  0.47172348  0.24760517  0.46965711  1  -0.315288  -0.564352  0.05607  2.345669  0.039
O  O88  1  0.97664969  0.49064320  0.15375992  1  -0.578701  -0.785986  0.05017  2.154274  0.033
O  O89  1  0.47665051  0.50935916  0.34624026  1  -0.578679  -0.785986  0.050167  2.154192  0.033
O  O90  1  0.02334725  0.50935723  0.84624095  1  -0.578682  -0.785976  0.050169  2.154255  0.033
O  O91  1  0.52334786  0.49064127  0.65376060  1  -0.578702  -0.786023  0.050168  2.154188  0.033
