# generated using pymatgen
data_DyAgH11C15(NO6)2
_symmetry_space_group_name_H-M   'P 1'
_cell_length_a   7.51418897
_cell_length_b   8.19893670
_cell_length_c   14.18846540
_cell_angle_alpha   98.35757202
_cell_angle_beta   100.45922942
_cell_angle_gamma   94.74432161
_symmetry_Int_Tables_number   1
_chemical_formula_structural   DyAgH11C15(NO6)2
_chemical_formula_sum   'Dy2 Ag2 H22 C30 N4 O24'
_cell_volume   845.11160088
_cell_formula_units_Z   2
loop_
 _symmetry_equiv_pos_site_id
 _symmetry_equiv_pos_as_xyz
  1  'x, y, z'
loop_
 _atom_site_type_symbol
 _atom_site_label
 _atom_site_symmetry_multiplicity
 _atom_site_fract_x
 _atom_site_fract_y
 _atom_site_fract_z
 _atom_site_occupancy
 _atom_site_hle17_bader_spin_density
 _atom_site_hle17_ddec_charge
 _atom_site_hle17_ddec_spin_density
 _atom_site_hle17_ddec_sum_bond_order
 _atom_site_hle17_magmom
 _atom_site_hse06_10hf_bader_spin_density
 _atom_site_hse06_10hf_ddec_charge
 _atom_site_hse06_10hf_ddec_spin_density
 _atom_site_hse06_10hf_ddec_sum_bond_order
 _atom_site_hse06_10hf_magmom
 _atom_site_hse06_bader_spin_density
 _atom_site_hse06_ddec_charge
 _atom_site_hse06_ddec_spin_density
 _atom_site_hse06_ddec_sum_bond_order
 _atom_site_hse06_magmom
 _atom_site_pbe_bader_spin_density
 _atom_site_pbe_cm5_charge
 _atom_site_pbe_ddec_charge
 _atom_site_pbe_ddec_spin_density
 _atom_site_pbe_ddec_sum_bond_order
 _atom_site_pbe_magmom
Dy  Dy0  1  0.81115487  0.79724815  0.58027146  1  0  2.302053  0  1.583175  0  0  2.231858  0  1.906437  0  0  2.27695  0  1.866811  0  0  1.505838  2.119741  0  2.082696  0
Dy  Dy1  1  0.18884566  0.20275265  0.41972823  1  0  2.302076  0  1.583156  0  0  2.231882  0  1.906415  0  0  2.276971  0  1.866788  0  0  1.505847  2.119747  0  2.082696  0
Ag  Ag2  1  0.17026240  0.90253613  0.03183087  1  0  0.522386  0  1.401746  0  0  0.373813  0  1.835147  0  0  0.403364  0  1.793576  0  0  0.474264  0.353513  0  1.864048  0
Ag  Ag3  1  0.82973525  0.09746346  0.96816844  1  0  0.5224  0  1.401701  0  0  0.373826  0  1.83511  0  0  0.403378  0  1.79354  0  0  0.47427  0.35352  0  1.864029  0
H  H4  1  0.45425849  0.58455710  0.76701222  1  0  0.415317  0  0.878679  0  0  0.384442  0  0.953067  0  0  0.396463  0  0.936128  0  0  0.308761  0.375914  0  0.965099  0
H  H5  1  0.54574110  0.41544614  0.23299323  1  0  0.415354  0  0.878585  0  0  0.38445  0  0.953052  0  0  0.396472  0  0.936111  0  0  0.308771  0.375923  0  0.965083  0
H  H6  1  0.20257370  0.68832134  0.62646892  1  0  0.441698  0  0.850329  0  0  0.414615  0  0.90703  0  0  0.42407  0  0.893265  0  0  0.306258  0.407372  0  0.91749  0
H  H7  1  0.79742666  0.31167822  0.37353064  1  0  0.441704  0  0.850321  0  0  0.414623  0  0.907016  0  0  0.424078  0  0.893251  0  0  0.306262  0.407382  0  0.917476  0
H  H8  1  0.12666362  0.61409558  0.51639022  1  0  0.44568  0  0.842038  0  0  0.418331  0  0.901989  0  0  0.428006  0  0.887812  0  0  0.312709  0.410867  0  0.912779  0
H  H9  1  0.87333691  0.38590522  0.48360946  1  0  0.445633  0  0.84205  0  0  0.41828  0  0.90205  0  0  0.427957  0  0.88787  0  0  0.312685  0.410815  0  0.912841  0
H  H10  1  0.78475372  0.05125269  0.45939147  1  0  0.430365  0  0.871846  0  0  0.398557  0  0.938516  0  0  0.409723  0  0.921853  0  0  0.303426  0.390689  0  0.949797  0
H  H11  1  0.21524495  0.94874440  0.54060702  1  0  0.430329  0  0.871895  0  0  0.398521  0  0.938566  0  0  0.409687  0  0.921903  0  0  0.303429  0.390652  0  0.949848  0
H  H12  1  0.63699969  0.12040780  0.51974025  1  0  0.462538  0  0.81971  0  0  0.434656  0  0.876245  0  0  0.445586  0  0.860224  0  0  0.310165  0.426024  0  0.888853  0
H  H13  1  0.36299932  0.87959177  0.48025919  1  0  0.462542  0  0.819701  0  0  0.43466  0  0.876234  0  0  0.44559  0  0.860213  0  0  0.310188  0.426031  0  0.888839  0
H  H14  1  0.32940692  0.78711224  0.86334228  1  0  0.088756  0  0.967139  0  0  0.092357  0  1.040906  0  0  0.096525  0  1.035633  0  0  0.116083  0.089188  0  1.044907  0
H  H15  1  0.67059343  0.21288733  0.13665587  1  0  0.088755  0  0.967191  0  0  0.092354  0  1.040953  0  0  0.096526  0  1.035671  0  0  0.116096  0.089178  0  1.044974  0
H  H16  1  0.02513079  0.49258516  0.66963642  1  0  0.117883  0  0.978691  0  0  0.123358  0  1.047227  0  0  0.128018  0  1.041526  0  0  0.118925  0.119968  0  1.051189  0
H  H17  1  0.97487109  0.50741562  0.33036339  1  0  0.117875  0  0.978708  0  0  0.123357  0  1.047228  0  0  0.128008  0  1.041548  0  0  0.118925  0.11997  0  1.051189  0
H  H18  1  0.27982226  0.26332822  0.99450386  1  0  0.107957  0  0.952344  0  0  0.112802  0  1.021727  0  0  0.116625  0  1.017106  0  0  0.121759  0.10997  0  1.025111  0
H  H19  1  0.72017945  0.73667132  0.00549582  1  0  0.107966  0  0.952341  0  0  0.112826  0  1.021707  0  0  0.11665  0  1.017081  0  0  0.121774  0.109991  0  1.025092  0
H  H20  1  0.52429850  0.20033669  0.73972323  1  0  0.134606  0  0.912334  0  0  0.144288  0  0.967752  0  0  0.148321  0  0.964183  0  0  0.125729  0.141131  0  0.970916  0
H  H21  1  0.47570000  0.79966909  0.26027670  1  0  0.134703  0  0.912254  0  0  0.144313  0  0.967746  0  0  0.148347  0  0.964179  0  0  0.125746  0.141157  0  0.970912  0
H  H22  1  0.83489420  0.47052539  0.93694718  1  0  0.093824  0  0.937156  0  0  0.100404  0  1.007925  0  0  0.103532  0  1.003739  0  0  0.120306  0.097975  0  1.011089  0
H  H23  1  0.16510346  0.52947420  0.06305214  1  0  0.093834  0  0.937146  0  0  0.100426  0  1.007889  0  0  0.103553  0  1.003705  0  0  0.120326  0.098008  0  1.011042  0
H  H24  1  0.96554595  0.03793642  0.78497410  1  0  0.091335  0  0.973407  0  0  0.092241  0  1.052351  0  0  0.097034  0  1.046132  0  0  0.121377  0.089548  0  1.054737  0
H  H25  1  0.03445171  0.96206316  0.21502521  1  0  0.091337  0  0.973424  0  0  0.092237  0  1.052361  0  0  0.097032  0  1.046145  0  0  0.12139  0.089544  0  1.054747  0
C  C26  1  0.00547443  0.25521434  0.71735699  1  0  -0.124203  0  3.733633  0  0  -0.097051  0  3.9696  0  0  -0.111773  0  3.992228  0  0  -0.01041  -0.088277  0  3.955854  0
C  C27  1  0.99452457  0.74478524  0.28264174  1  0  -0.124198  0  3.733611  0  0  -0.097055  0  3.969583  0  0  -0.111775  0  3.992212  0  0  -0.010413  -0.08828  0  3.955837  0
C  C28  1  0.35356328  0.91984673  0.86249532  1  0  0.13495  0  3.635071  0  0  0.089392  0  3.883873  0  0  0.100327  0  3.899217  0  0  0.057154  0.082291  0  3.874104  0
C  C29  1  0.64643301  0.08015288  0.13750316  1  0  0.135009  0  3.635216  0  0  0.089439  0  3.884008  0  0  0.100378  0  3.899347  0  0  0.057111  0.082333  0  3.874243  0
C  C30  1  0.40353301  0.25605735  0.86656820  1  0  -0.132595  0  3.760079  0  0  -0.10595  0  4.001243  0  0  -0.12093  0  4.025703  0  0  -0.012716  -0.096656  0  3.985323  0
C  C31  1  0.59646834  0.74393973  0.13342982  1  0  -0.132306  0  3.760051  0  0  -0.105709  0  4.001215  0  0  -0.120685  0  4.025666  0  0  -0.012664  -0.096413  0  3.985291  0
C  C32  1  0.98874987  0.42448816  0.72489197  1  0  0.020287  0  3.62007  0  0  -0.022873  0  3.864371  0  0  -0.01232  0  3.87612  0  0  -0.045518  -0.029786  0  3.857864  0
C  C33  1  0.01125049  0.57551140  0.27510759  1  0  0.020337  0  3.620069  0  0  -0.022812  0  3.864367  0  0  -0.01226  0  3.876112  0  0  -0.045495  -0.029726  0  3.857862  0
C  C34  1  0.92443224  0.50517304  0.80336893  1  0  -0.103808  0  3.697807  0  0  -0.074785  0  3.930211  0  0  -0.088785  0  3.952705  0  0  -0.006457  -0.066359  0  3.916241  0
C  C35  1  0.07556812  0.49482652  0.19663063  1  0  -0.103851  0  3.697807  0  0  -0.074842  0  3.930222  0  0  -0.08884  0  3.952717  0  0  -0.006493  -0.066415  0  3.916263  0
C  C36  1  0.32706083  0.18700865  0.93650435  1  0  0.134337  0  3.631782  0  0  0.088441  0  3.880806  0  0  0.099497  0  3.896699  0  0  0.061061  0.08143  0  3.869912  0
C  C37  1  0.67293668  0.81298969  0.06349625  1  0  0.134254  0  3.631858  0  0  0.088365  0  3.88087  0  0  0.099424  0  3.896761  0  0  0.061035  0.081353  0  3.869979  0
C  C38  1  0.07242704  0.16489179  0.63378642  1  0  0.72141  0  3.86698  0  0  0.672849  0  4.159432  0  0  0.708569  0  4.149267  0  0  0.236251  0.648242  0  4.160221  0
C  C39  1  0.92757197  0.83510778  0.36621302  1  0  0.721385  0  3.867112  0  0  0.672815  0  4.159572  0  0  0.708534  0  4.149414  0  0  0.236263  0.648207  0  4.160362  0
C  C40  1  0.43447397  0.56015686  0.48036872  1  0  0.582288  0  3.900124  0  0  0.531939  0  4.213167  0  0  0.563197  0  4.200476  0  0  0.227018  0.510991  0  4.213351  0
C  C41  1  0.56552808  0.43984517  0.51963121  1  0  0.582233  0  3.90012  0  0  0.531854  0  4.21321  0  0  0.563114  0  4.200516  0  0  0.226986  0.510907  0  4.213393  0
C  C42  1  0.46354561  0.15088677  0.79514856  1  0  0.00293  0  3.648286  0  0  -0.042105  0  3.90283  0  0  -0.032421  0  3.91505  0  0  -0.049064  -0.048441  0  3.895854  0
C  C43  1  0.53645223  0.84911405  0.20485158  1  0  0.002791  0  3.648155  0  0  -0.04217  0  3.902642  0  0  -0.032486  0  3.914863  0  0  -0.049077  -0.04851  0  3.895672  0
C  C44  1  0.40492226  0.43722184  0.86207600  1  0  0.663295  0  3.837746  0  0  0.612068  0  4.134961  0  0  0.64538  0  4.128735  0  0  0.23248  0.589497  0  4.138738  0
C  C45  1  0.59506813  0.56279263  0.13793662  1  0  0.662891  0  3.836604  0  0  0.611717  0  4.133824  0  0  0.645027  0  4.127606  0  0  0.232318  0.589145  0  4.137594  0
C  C46  1  0.49953950  0.86369342  0.71679472  1  0  0.705187  0  3.867956  0  0  0.651352  0  4.167077  0  0  0.686727  0  4.156987  0  0  0.232559  0.627297  0  4.169929  0
C  C47  1  0.50046270  0.13630985  0.28320392  1  0  0.705151  0  3.868099  0  0  0.651332  0  4.167163  0  0  0.686707  0  4.157078  0  0  0.232573  0.627276  0  4.170016  0
C  C48  1  0.43872199  0.98012032  0.79305871  1  0  -0.116634  0  3.739973  0  0  -0.089592  0  3.982247  0  0  -0.102483  0  4.002497  0  0  -0.011388  -0.082333  0  3.97068  0
C  C49  1  0.56127581  0.01988053  0.20693861  1  0  -0.116722  0  3.740232  0  0  -0.089651  0  3.98242  0  0  -0.102546  0  4.002674  0  0  -0.011374  -0.08239  0  3.970853  0
C  C50  1  0.88346210  0.41284793  0.87360403  1  0  0.138666  0  3.626803  0  0  0.093142  0  3.874776  0  0  0.104386  0  3.891384  0  0  0.060997  0.085979  0  3.863645  0
C  C51  1  0.11653538  0.58715042  0.12639445  1  0  0.138655  0  3.626906  0  0  0.093139  0  3.87488  0  0  0.104381  0  3.891488  0  0  0.061037  0.085967  0  3.863747  0
C  C52  1  0.95694117  0.17081260  0.78891821  1  0  0.126755  0  3.664954  0  0  0.080426  0  3.915586  0  0  0.091651  0  3.931568  0  0  0.05623  0.073732  0  3.903591  0
C  C53  1  0.04305784  0.82918697  0.21108123  1  0  0.12672  0  3.664933  0  0  0.080415  0  3.915553  0  0  0.091633  0  3.931539  0  0  0.056201  0.073723  0  3.903558  0
C  C54  1  0.90103322  0.68775718  0.81100780  1  0  0.702142  0  3.883307  0  0  0.652799  0  4.176852  0  0  0.688018  0  4.168301  0  0  0.218248  0.628363  0  4.180349  0
C  C55  1  0.09896563  0.31224115  0.18899221  1  0  0.702064  0  3.883354  0  0  0.652723  0  4.176908  0  0  0.68794  0  4.16836  0  0  0.218206  0.628286  0  4.180411  0
N  N56  1  0.30175012  0.02158696  0.93379624  1  0  -0.297997  0  3.343031  0  0  -0.20344  0  3.624873  0  0  -0.225956  0  3.642187  0  0  -0.347378  -0.188438  0  3.612876  0
N  N57  1  0.69824754  0.97841262  0.06620307  1  0  -0.297929  0  3.34301  0  0  -0.203393  0  3.624863  0  0  -0.22591  0  3.642177  0  0  -0.347323  -0.18839  0  3.612864  0
N  N58  1  0.89916750  0.24858226  0.86629321  1  0  -0.305563  0  3.344436  0  0  -0.208308  0  3.624464  0  0  -0.231896  0  3.642686  0  0  -0.349709  -0.192647  0  3.611917  0
N  N59  1  0.10082863  0.75141610  0.13370515  1  0  -0.305544  0  3.344497  0  0  -0.208297  0  3.624509  0  0  -0.231878  0  3.642723  0  0  -0.349739  -0.192635  0  3.611964  0
O  O60  1  0.47850011  0.47347343  0.78817532  1  0  -0.551313  0  2.118341  0  0  -0.498017  0  2.334742  0  0  -0.521649  0  2.319478  0  0  -0.32535  -0.481606  0  2.345079  0
O  O61  1  0.52149738  0.52652491  0.21182387  1  0  -0.55118  0  2.118468  0  0  -0.497904  0  2.334941  0  0  -0.521532  0  2.319671  0  0  -0.325339  -0.481496  0  2.345279  0
O  O62  1  0.09088708  0.67034441  0.57518990  1  0  -0.902734  0  1.905265  0  0  -0.860889  0  2.096994  0  0  -0.878803  0  2.066314  0  0  -0.632534  -0.838797  0  2.12384  0
O  O63  1  0.90911464  0.32965512  0.42481048  1  0  -0.90268  0  1.905236  0  0  -0.860855  0  2.097023  0  0  -0.878756  0  2.066316  0  0  -0.63251  -0.838762  0  2.123869  0
O  O64  1  0.05966575  0.00595910  0.62274902  1  0  -0.765902  0  2.083316  0  0  -0.717318  0  2.334609  0  0  -0.743921  0  2.322929  0  0  -0.393269  -0.687203  0  2.342604  0
O  O65  1  0.94033327  0.99404047  0.37725112  1  0  -0.765911  0  2.083378  0  0  -0.717331  0  2.334701  0  0  -0.743921  0  2.322992  0  0  -0.393283  -0.687212  0  2.342696  0
O  O66  1  0.71668605  0.03138115  0.51083147  1  0  -0.926045  0  1.88845  0  0  -0.88504  0  2.080543  0  0  -0.903081  0  2.047314  0  0  -0.647568  -0.86233  0  2.110089  0
O  O67  1  0.28331296  0.96861842  0.48916796  1  0  -0.926034  0  1.888489  0  0  -0.885037  0  2.080596  0  0  -0.903082  0  2.04738  0  0  -0.6476  -0.862326  0  2.110141  0
O  O68  1  0.42548994  0.71343693  0.69789454  1  0  -0.658159  0  2.001742  0  0  -0.599475  0  2.225448  0  0  -0.623793  0  2.212221  0  0  -0.309959  -0.581907  0  2.23263  0
O  O69  1  0.57451178  0.28656261  0.30210585  1  0  -0.658155  0  2.001912  0  0  -0.599458  0  2.225602  0  0  -0.623778  0  2.212375  0  0  -0.309946  -0.581883  0  2.232774  0
O  O70  1  0.49943360  0.70959860  0.48772553  1  0  -0.647533  0  2.079271  0  0  -0.60322  0  2.315357  0  0  -0.626739  0  2.3048  0  0  -0.333351  -0.578003  0  2.324313  0
O  O71  1  0.50056678  0.29040094  0.51227544  1  0  -0.647516  0  2.079155  0  0  -0.60321  0  2.315266  0  0  -0.626729  0  2.304709  0  0  -0.333348  -0.577987  0  2.32422  0
O  O72  1  0.33933801  0.53513138  0.91698425  1  0  -0.561966  0  1.934709  0  0  -0.520495  0  2.160391  0  0  -0.543139  0  2.154526  0  0  -0.28742  -0.504974  0  2.164175  0
O  O73  1  0.66068177  0.46485183  0.08301497  1  0  -0.561933  0  1.932975  0  0  -0.520482  0  2.158668  0  0  -0.543136  0  2.152813  0  0  -0.287386  -0.504956  0  2.162447  0
O  O74  1  0.61915041  0.92235110  0.67494865  1  0  -0.697543  0  2.047172  0  0  -0.657167  0  2.304354  0  0  -0.683613  0  2.294932  0  0  -0.376963  -0.627549  0  2.311884  0
O  O75  1  0.38084742  0.07764972  0.32505079  1  0  -0.697521  0  2.047152  0  0  -0.65714  0  2.304298  0  0  -0.683587  0  2.294878  0  0  -0.376967  -0.62752  0  2.311828  0
O  O76  1  0.13915783  0.25022545  0.57861099  1  0  -0.695547  0  2.020689  0  0  -0.653375  0  2.268751  0  0  -0.678535  0  2.258151  0  0  -0.382392  -0.625331  0  2.279128  0
O  O77  1  0.86084405  0.74977533  0.42138882  1  0  -0.695498  0  2.020716  0  0  -0.653352  0  2.26883  0  0  -0.678502  0  2.258207  0  0  -0.382387  -0.625312  0  2.279209  0
O  O78  1  0.27110338  0.49828785  0.44488862  1  0  -0.682124  0  2.089899  0  0  -0.638398  0  2.336508  0  0  -0.663059  0  2.326362  0  0  -0.357608  -0.611179  0  2.344825  0
O  O79  1  0.72889851  0.50171293  0.55511189  1  0  -0.682107  0  2.089966  0  0  -0.638366  0  2.336596  0  0  -0.66303  0  2.326449  0  0  -0.357613  -0.611149  0  2.344912  0
O  O80  1  0.87257459  0.76399409  0.88958391  1  0  -0.649813  0  1.973422  0  0  -0.593786  0  2.234461  0  0  -0.619186  0  2.22034  0  0  -0.32573  -0.576395  0  2.24455  0
O  O81  1  0.12742410  0.23600299  0.11041669  1  0  -0.649764  0  1.973559  0  0  -0.593735  0  2.234592  0  0  -0.619133  0  2.220472  0  0  -0.325696  -0.576338  0  2.244672  0
O  O82  1  0.91493492  0.75300533  0.73540245  1  0  -0.767183  0  2.060432  0  0  -0.72283  0  2.320078  0  0  -0.749882  0  2.309372  0  0  -0.422808  -0.691496  0  2.329956  0
O  O83  1  0.08506277  0.24699424  0.26459897  1  0  -0.767138  0  2.060386  0  0  -0.722771  0  2.320004  0  0  -0.749824  0  2.309302  0  0  -0.422792  -0.691432  0  2.329883  0
