# generated using pymatgen
data_MoH3C4N4O3
_symmetry_space_group_name_H-M   'P 1'
_cell_length_a   7.27495817
_cell_length_b   8.78017849
_cell_length_c   11.57628956
_cell_angle_alpha   87.17444389
_cell_angle_beta   74.71704127
_cell_angle_gamma   71.92226452
_symmetry_Int_Tables_number   1
_chemical_formula_structural   MoH3C4N4O3
_chemical_formula_sum   'Mo4 H12 C16 N16 O12'
_cell_volume   677.65427662
_cell_formula_units_Z   4
loop_
 _symmetry_equiv_pos_site_id
 _symmetry_equiv_pos_as_xyz
  1  'x, y, z'
loop_
 _atom_site_type_symbol
 _atom_site_label
 _atom_site_symmetry_multiplicity
 _atom_site_fract_x
 _atom_site_fract_y
 _atom_site_fract_z
 _atom_site_occupancy
 _atom_site_hle17_bader_spin_density
 _atom_site_hle17_ddec_charge
 _atom_site_hle17_ddec_spin_density
 _atom_site_hle17_ddec_sum_bond_order
 _atom_site_hle17_magmom
 _atom_site_hse06_10hf_bader_spin_density
 _atom_site_hse06_10hf_ddec_charge
 _atom_site_hse06_10hf_ddec_spin_density
 _atom_site_hse06_10hf_ddec_sum_bond_order
 _atom_site_hse06_10hf_magmom
 _atom_site_hse06_bader_spin_density
 _atom_site_hse06_ddec_charge
 _atom_site_hse06_ddec_spin_density
 _atom_site_hse06_ddec_sum_bond_order
 _atom_site_hse06_magmom
 _atom_site_pbe_bader_spin_density
 _atom_site_pbe_cm5_charge
 _atom_site_pbe_ddec_charge
 _atom_site_pbe_ddec_spin_density
 _atom_site_pbe_ddec_sum_bond_order
 _atom_site_pbe_magmom
Mo  Mo0  1  0.46018394  0.33386329  0.94295038  1  0  2.163987  0  4.060314  0  0  2.150858  0  4.619473  0  0  2.24973  0  4.58447  0  0  1.534171  2.077668  0  4.650259  0
Mo  Mo1  1  0.53981462  0.66613651  0.05704968  1  0  2.163946  0  4.060297  0  0  2.150822  0  4.619452  0  0  2.249695  0  4.58445  0  0  1.534162  2.077633  0  4.650242  0
Mo  Mo2  1  0.03733301  0.63533056  0.08877860  1  0  2.192286  0  4.085824  0  0  2.185083  0  4.630787  0  0  2.28218  0  4.600809  0  0  1.558664  2.111667  0  4.660506  0
Mo  Mo3  1  0.96266652  0.36467044  0.91122127  1  0  2.19228  0  4.085877  0  0  2.185078  0  4.630841  0  0  2.282178  0  4.600859  0  0  1.558658  2.111662  0  4.66055  0
H  H4  1  0.85547898  0.51870651  0.36561854  1  0  0.328834  0  0.908533  0  0  0.306681  0  0.973592  0  0  0.316836  0  0.964174  0  0  0.318816  0.299434  0  0.980469  0
H  H5  1  0.14451959  0.48129329  0.63438153  1  0  0.328788  0  0.908609  0  0  0.306667  0  0.973619  0  0  0.316824  0  0.964199  0  0  0.318789  0.299415  0  0.980491  0
H  H6  1  0.35741858  0.07573386  0.24240376  1  0  0.113061  0  0.926769  0  0  0.122513  0  0.98101  0  0  0.12627  0  0.978243  0  0  0.122101  0.11975  0  0.983273  0
H  H7  1  0.64258284  0.92426594  0.75759583  1  0  0.113072  0  0.926772  0  0  0.12252  0  0.981015  0  0  0.126277  0  0.978249  0  0  0.122106  0.119757  0  0.983276  0
H  H8  1  0.02013298  0.91924978  0.84723032  1  0  0.12422  0  0.912782  0  0  0.139463  0  0.961802  0  0  0.142175  0  0.958284  0  0  0.15373  0.137443  0  0.964392  0
H  H9  1  0.97986700  0.08075003  0.15276778  1  0  0.124213  0  0.912794  0  0  0.139457  0  0.961814  0  0  0.142169  0  0.958297  0  0  0.153732  0.137439  0  0.964404  0
H  H10  1  0.00879827  0.14750298  0.66723262  1  0  0.104652  0  0.934288  0  0  0.109999  0  1.002028  0  0  0.113419  0  0.999409  0  0  0.124145  0.107486  0  1.004016  0
H  H11  1  0.99120030  0.85249682  0.33276659  1  0  0.104632  0  0.934294  0  0  0.109978  0  1.002041  0  0  0.113397  0  0.999423  0  0  0.124143  0.107464  0  1.004034  0
H  H12  1  0.28850291  0.85979449  0.64230800  1  0  0.289102  0  0.956189  0  0  0.25306  0  1.040004  0  0  0.263897  0  1.032264  0  0  0.301693  0.245534  0  1.045305  0
H  H13  1  0.71149851  0.14020531  0.35769159  1  0  0.289123  0  0.956169  0  0  0.253076  0  1.039992  0  0  0.263914  0  1.032251  0  0  0.301696  0.245551  0  1.045292  0
H  H14  1  0.46489637  0.86839321  0.39158958  1  0  0.103997  0  0.936673  0  0  0.105927  0  1.008334  0  0  0.110307  0  1.00388  0  0  0.118855  0.102726  0  1.011578  0
H  H15  1  0.53510316  0.13160779  0.60841029  1  0  0.103999  0  0.936688  0  0  0.105939  0  1.00833  0  0  0.110316  0  1.003889  0  0  0.118857  0.102738  0  1.011572  0
C  C16  1  0.02055237  0.23908819  0.48818110  1  0  0.100945  0  3.816331  0  0  0.106204  0  4.071702  0  0  0.106784  0  4.090459  0  0  0.123549  0.105355  0  4.059214  0
C  C17  1  0.97944905  0.76091161  0.51181849  1  0  0.10084  0  3.816478  0  0  0.106171  0  4.071798  0  0  0.106753  0  4.090553  0  0  0.123556  0.105327  0  4.059302  0
C  C18  1  0.84528485  0.37944422  0.52659093  1  0  0.281544  0  3.767784  0  0  0.243604  0  4.04601  0  0  0.256733  0  4.060036  0  0  0.227187  0.235278  0  4.036196  0
C  C19  1  0.15471656  0.62055558  0.47340866  1  0  0.281715  0  3.767714  0  0  0.243674  0  4.046052  0  0  0.256806  0  4.060081  0  0  0.227242  0.23534  0  4.036233  0
C  C20  1  0.27709717  0.09098880  0.33722013  1  0  0.081815  0  3.661034  0  0  0.062461  0  3.920852  0  0  0.063197  0  3.936114  0  0  0.056714  0.061712  0  3.910738  0
C  C21  1  0.72290425  0.90901100  0.66277946  1  0  0.081776  0  3.660995  0  0  0.062422  0  3.920803  0  0  0.063155  0  3.936063  0  0  0.056672  0.061671  0  3.910685  0
C  C22  1  0.14207735  0.80874378  0.82101243  1  0  0.281968  0  3.574348  0  0  0.219969  0  3.848035  0  0  0.237562  0  3.853191  0  0  0.184977  0.208407  0  3.844194  0
C  C23  1  0.85792407  0.19125603  0.17898629  1  0  0.282015  0  3.574453  0  0  0.220012  0  3.848149  0  0  0.237605  0  3.853306  0  0  0.184982  0.20845  0  3.844309  0
C  C24  1  0.58656095  0.55215635  0.62608671  1  0  0.230052  0  3.812075  0  0  0.212206  0  4.09659  0  0  0.219246  0  4.110797  0  0  0.218706  0.207436  0  4.087036  0
C  C25  1  0.41344093  0.44784224  0.37391371  1  0  0.230087  0  3.812022  0  0  0.21226  0  4.096505  0  0  0.219307  0  4.110703  0  0  0.218722  0.207489  0  4.086961  0
C  C26  1  0.08560794  0.12886668  0.57196028  1  0  0.066277  0  3.631981  0  0  0.028874  0  3.885429  0  0  0.032437  0  3.9009  0  0  0.059563  0.026612  0  3.875012  0
C  C27  1  0.91439205  0.87113312  0.42803955  1  0  0.066345  0  3.631969  0  0  0.028939  0  3.885393  0  0  0.0325  0  3.900864  0  0  0.059569  0.026672  0  3.874982  0
C  C28  1  0.41378365  0.63143684  0.72173577  1  0  0.313944  0  3.690262  0  0  0.285979  0  3.95246  0  0  0.30251  0  3.961313  0  0  0.250795  0.27506  0  3.9463  0
C  C29  1  0.58621635  0.36856296  0.27826406  1  0  0.313926  0  3.690243  0  0  0.285948  0  3.952448  0  0  0.302477  0  3.961303  0  0  0.250814  0.275031  0  3.946293  0
C  C30  1  0.33955391  0.97745367  0.41947691  1  0  0.088384  0  3.642164  0  0  0.053121  0  3.908017  0  0  0.057682  0  3.922469  0  0  0.054483  0.050219  0  3.898276  0
C  C31  1  0.66044704  0.02254734  0.58052271  1  0  0.088411  0  3.642158  0  0  0.05316  0  3.90797  0  0  0.05772  0  3.922419  0  0  0.054525  0.050259  0  3.898226  0
N  N32  1  0.78688972  0.50252662  0.45506047  1  0  -0.211052  0  3.425671  0  0  -0.147076  0  3.665407  0  0  -0.161894  0  3.681142  0  0  -0.252033  -0.137445  0  3.655048  0
N  N33  1  0.21311027  0.49747318  0.54493935  1  0  -0.211078  0  3.425675  0  0  -0.147092  0  3.665411  0  0  -0.161922  0  3.68116  0  0  -0.252034  -0.137434  0  3.655019  0
N  N34  1  0.11687830  0.22068974  0.37087149  1  0  -0.268098  0  3.028058  0  0  -0.248624  0  3.298496  0  0  -0.253968  0  3.313041  0  0  -0.294939  -0.24467  0  3.288761  0
N  N35  1  0.88312311  0.77931007  0.62912723  1  0  -0.268082  0  3.028137  0  0  -0.248633  0  3.298563  0  0  -0.253974  0  3.313105  0  0  -0.294944  -0.244678  0  3.288821  0
N  N36  1  0.72050184  0.40824867  0.63628186  1  0  -0.389906  0  2.926752  0  0  -0.368635  0  3.205788  0  0  -0.381196  0  3.217389  0  0  -0.310608  -0.360102  0  3.197709  0
N  N37  1  0.27950005  0.59174993  0.36371856  1  0  -0.389943  0  2.926741  0  0  -0.368652  0  3.205794  0  0  -0.381217  0  3.217397  0  0  -0.310627  -0.360124  0  3.197728  0
N  N38  1  0.62199528  0.61491968  0.51691421  1  0  -0.230544  0  2.845958  0  0  -0.230036  0  3.124296  0  0  -0.236242  0  3.14078  0  0  -0.211719  -0.225668  0  3.113259  0
N  N39  1  0.37800662  0.38507892  0.48308707  1  0  -0.230561  0  2.845889  0  0  -0.230062  0  3.124233  0  0  -0.236267  0  3.140721  0  0  -0.211724  -0.225702  0  3.113188  0
N  N40  1  0.34996267  0.57071507  0.82668000  1  0  -0.297014  0  3.134085  0  0  -0.270023  0  3.417216  0  0  -0.284331  0  3.435767  0  0  -0.236229  -0.260104  0  3.404365  0
N  N41  1  0.65003779  0.42928353  0.17332065  1  0  -0.296996  0  3.134082  0  0  -0.27  0  3.417218  0  0  -0.284307  0  3.435771  0  0  -0.236245  -0.26008  0  3.404371  0
N  N42  1  0.24370041  0.99784630  0.53663081  1  0  -0.269693  0  3.189926  0  0  -0.213843  0  3.446715  0  0  -0.225846  0  3.465042  0  0  -0.291911  -0.205557  0  3.434062  0
N  N43  1  0.75629912  0.00215470  0.46336905  1  0  -0.269718  0  3.189908  0  0  -0.213886  0  3.446713  0  0  -0.225888  0  3.46504  0  0  -0.291927  -0.2056  0  3.434063  0
N  N44  1  0.28551712  0.78105783  0.71593712  1  0  -0.32268  0  3.348923  0  0  -0.257677  0  3.593521  0  0  -0.276491  0  3.602057  0  0  -0.346152  -0.245134  0  3.58752  0
N  N45  1  0.71448429  0.21894198  0.28406161  1  0  -0.322717  0  3.348996  0  0  -0.257704  0  3.593596  0  0  -0.276519  0  3.602132  0  0  -0.346147  -0.24516  0  3.587596  0
N  N46  1  0.17939202  0.68306980  0.88833968  1  0  -0.295335  0  3.256267  0  0  -0.261955  0  3.552447  0  0  -0.278341  0  3.573499  0  0  -0.261677  -0.250393  0  3.537794  0
N  N47  1  0.82060939  0.31693001  0.11165992  1  0  -0.29537  0  3.256294  0  0  -0.262  0  3.552497  0  0  -0.278388  0  3.573552  0  0  -0.26169  -0.250434  0  3.537845  0
O  O48  1  0.16590665  0.39046345  0.98572253  1  0  -1.000063  0  1.94281  0  0  -0.99313  0  2.252288  0  0  -1.038004  0  2.248361  0  0  -0.605123  -0.957738  0  2.253812  0
O  O49  1  0.83409288  0.60953755  0.01427733  1  0  -1.000086  0  1.942833  0  0  -0.993163  0  2.252327  0  0  -1.038038  0  2.248401  0  0  -0.605136  -0.957768  0  2.253847  0
O  O50  1  0.32457621  0.56858104  0.07431481  1  0  -0.989049  0  1.926348  0  0  -0.986257  0  2.244701  0  0  -1.030958  0  2.239312  0  0  -0.597988  -0.950997  0  2.246998  0
O  O51  1  0.67542378  0.43141876  0.92568502  1  0  -0.989044  0  1.926348  0  0  -0.986239  0  2.244673  0  0  -1.03094  0  2.239283  0  0  -0.597985  -0.950992  0  2.246993  0
O  O52  1  0.50578784  0.20555584  0.05529309  1  0  -0.619634  0  1.386239  0  0  -0.620627  0  1.612555  0  0  -0.645964  0  1.604153  0  0  -0.50059  -0.602882  0  1.619676  0
O  O53  1  0.49421026  0.79444516  0.94470701  1  0  -0.619619  0  1.386218  0  0  -0.620621  0  1.612538  0  0  -0.645957  0  1.604137  0  0  -0.50059  -0.602869  0  1.619655  0
O  O54  1  0.95629652  0.56089710  0.22712016  1  0  -0.67457  0  1.526796  0  0  -0.681628  0  1.790976  0  0  -0.707317  0  1.781885  0  0  -0.509136  -0.663078  0  1.798736  0
O  O55  1  0.04370301  0.43910390  0.77287971  1  0  -0.674563  0  1.526831  0  0  -0.681637  0  1.79102  0  0  -0.707326  0  1.781924  0  0  -0.509136  -0.663086  0  1.798771  0
O  O56  1  0.96770248  0.83743593  0.11510211  1  0  -0.654903  0  1.419312  0  0  -0.656444  0  1.655354  0  0  -0.682765  0  1.646929  0  0  -0.498816  -0.637478  0  1.662561  0
O  O57  1  0.03229848  0.16256507  0.88489752  1  0  -0.654925  0  1.419377  0  0  -0.656461  0  1.655409  0  0  -0.682782  0  1.646982  0  0  -0.498832  -0.637497  0  1.662615  0
O  O58  1  0.52701388  0.21208069  0.81943755  1  0  -0.642504  0  1.466432  0  0  -0.650018  0  1.724651  0  0  -0.677619  0  1.716447  0  0  -0.491217  -0.630516  0  1.731387  0
O  O59  1  0.47298469  0.78791910  0.18056338  1  0  -0.642491  0  1.466397  0  0  -0.649998  0  1.724603  0  0  -0.6776  0  1.716399  0  0  -0.491217  -0.630501  0  1.73135  0
