# generated using pymatgen
data_ZnH14C18(NO2)2
_symmetry_space_group_name_H-M   'P 1'
_cell_length_a   13.71492432
_cell_length_b   13.79256993
_cell_length_c   21.57627953
_cell_angle_alpha   90.00026133
_cell_angle_beta   89.99972012
_cell_angle_gamma   89.99968401
_symmetry_Int_Tables_number   1
_chemical_formula_structural   ZnH14C18(NO2)2
_chemical_formula_sum   'Zn8 H112 C144 N16 O32'
_cell_volume   4081.45647781
_cell_formula_units_Z   8
loop_
 _symmetry_equiv_pos_site_id
 _symmetry_equiv_pos_as_xyz
  1  'x, y, z'
loop_
 _atom_site_type_symbol
 _atom_site_label
 _atom_site_symmetry_multiplicity
 _atom_site_fract_x
 _atom_site_fract_y
 _atom_site_fract_z
 _atom_site_occupancy
 _atom_site_pbe_bader_charge
 _atom_site_pbe_bader_spin_density
 _atom_site_pbe_cm5_charge
 _atom_site_pbe_ddec_charge
 _atom_site_pbe_ddec_spin_density
 _atom_site_pbe_ddec_sum_bond_order
 _atom_site_pbe_magmom
Zn  Zn0  1  0.53196843  0.10196350  0.94274201  1  1.307264  0  0.678649  0.809405  0  2.335103  0
Zn  Zn1  1  0.46803739  0.60195753  0.55726208  1  1.307067  0  0.678671  0.809262  0  2.335275  0
Zn  Zn2  1  0.46804501  0.89803537  0.05726387  1  1.307272  0  0.678716  0.809395  0  2.335257  0
Zn  Zn3  1  0.53195637  0.39803119  0.44274195  1  1.306927  0  0.678679  0.809352  0  2.335192  0
Zn  Zn4  1  0.96803756  0.89802822  0.44273826  1  1.307003  0  0.678698  0.809401  0  2.335078  0
Zn  Zn5  1  0.03196164  0.39802892  0.05725644  1  1.307082  0  0.678683  0.809293  0  2.335253  0
Zn  Zn6  1  0.03195766  0.10194527  0.55725974  1  1.306956  0  0.67863  0.809245  0  2.335482  0
Zn  Zn7  1  0.96804379  0.60195762  0.94273924  1  1.307059  0  0.678701  0.809366  0  2.335223  0
H  H8  1  0.48386355  0.39198670  0.81759626  1  0.031873  0  0.094343  0.099683  0  1.035066  0
H  H9  1  0.54323617  0.21105842  0.74291854  1  0.077736  0  0.104363  0.107577  0  0.983806  0
H  H10  1  0.48545924  0.42239250  0.70339589  1  0.118762  0  0.105369  0.105613  0  0.986788  0
H  H11  1  0.55694566  0.24579260  0.62831539  1  0.089044  0  0.096654  0.115203  0  1.03755  0
H  H12  1  0.36577845  0.03305915  0.86246976  1  0.09683  0  0.117808  0.090545  0  0.996054  0
H  H13  1  0.18462326  0.02613198  0.86059019  1  0.077425  0  0.107982  0.115204  0  0.996432  0
H  H14  1  0.18599966  0.17407380  0.03723158  1  0.147003  0  0.113641  0.129786  0  0.996463  0
H  H15  1  0.36808745  0.17510718  0.03114035  1  0.106715  0  0.117245  0.087351  0  1.015668  0
H  H16  1  0.03786478  0.13673446  0.99772080  1  0.138305  0  0.109662  0.128044  0  1.044142  0
H  H17  1  0.02161319  0.03006719  0.87216242  1  0.030774  0  0.099147  0.089942  0  1.02575  0
H  H18  1  0.71484266  0.14972372  0.02270782  1  0.146425  0  0.114187  0.089576  0  1.017852  0
H  H19  1  0.89532202  0.13966417  0.01547644  1  0.156401  0  0.110216  0.13035  0  1.026269  0
H  H20  1  0.85633765  0.00935077  0.83429404  1  0.077866  0  0.106275  0.11262  0  1.000067  0
H  H21  1  0.67636207  0.02800845  0.84979609  1  0.120769  0  0.119185  0.096223  0  0.987204  0
H  H22  1  0.51614864  0.89199808  0.68241003  1  0.031857  0  0.094415  0.099695  0  1.03501  0
H  H23  1  0.45679018  0.71105617  0.75708122  1  0.077833  0  0.104186  0.107314  0  0.983828  0
H  H24  1  0.51456955  0.92238588  0.79661187  1  0.118804  0  0.105382  0.10561  0  0.98683  0
H  H25  1  0.44308705  0.74579055  0.87169419  1  0.089277  0  0.096595  0.115194  0  1.037537  0
H  H26  1  0.63421757  0.53304419  0.63753506  1  0.096547  0  0.117797  0.090524  0  0.996264  0
H  H27  1  0.81537060  0.52611099  0.63941693  1  0.077293  0  0.10798  0.115158  0  0.996315  0
H  H28  1  0.81400154  0.67406102  0.46278057  1  0.147469  0  0.113615  0.129748  0  0.996279  0
H  H29  1  0.63191301  0.67509831  0.46886717  1  0.10712  0  0.117275  0.087332  0  1.015827  0
H  H30  1  0.96212262  0.63672255  0.50228060  1  0.138615  0  0.109678  0.127968  0  1.044325  0
H  H31  1  0.97840252  0.53007425  0.62784054  1  0.031371  0  0.099216  0.090089  0  1.025747  0
H  H32  1  0.28516451  0.64971024  0.47728664  1  0.146275  0  0.114177  0.089501  0  1.017951  0
H  H33  1  0.10468521  0.63965751  0.48451800  1  0.156346  0  0.110214  0.130262  0  1.026415  0
H  H34  1  0.14366724  0.50936764  0.66570701  1  0.078411  0  0.106251  0.112644  0  0.999938  0
H  H35  1  0.32364126  0.52802135  0.65020501  1  0.120817  0  0.119232  0.096251  0  0.98719  0
H  H36  1  0.51610906  0.60802957  0.18241240  1  0.032029  0  0.094281  0.099683  0  1.03494  0
H  H37  1  0.45675322  0.78894988  0.25710356  1  0.077775  0  0.104276  0.107491  0  0.983912  0
H  H38  1  0.51453525  0.57760854  0.29661045  1  0.118685  0  0.105374  0.10565  0  0.986791  0
H  H39  1  0.44305685  0.75419829  0.37170022  1  0.088842  0  0.096623  0.115227  0  1.037545  0
H  H40  1  0.63422917  0.96696292  0.13752731  1  0.096921  0  0.117797  0.090492  0  0.996117  0
H  H41  1  0.81537925  0.97389734  0.13940456  1  0.07732  0  0.107974  0.115129  0  0.996523  0
H  H42  1  0.81401233  0.82593885  0.96277662  1  0.147196  0  0.113623  0.129779  0  0.996519  0
H  H43  1  0.63192673  0.82489749  0.96886414  1  0.107073  0  0.117277  0.087441  0  1.015699  0
H  H44  1  0.96213919  0.86327818  0.00227813  1  0.138354  0  0.109707  0.12817  0  1.04418  0
H  H45  1  0.97841046  0.96993023  0.12783697  1  0.03148  0  0.099291  0.090154  0  1.025734  0
H  H46  1  0.28518464  0.85028748  0.97728971  1  0.146543  0  0.11415  0.089505  0  1.017853  0
H  H47  1  0.10470310  0.86034630  0.98451786  1  0.156523  0  0.110095  0.130136  0  1.026319  0
H  H48  1  0.14367725  0.99064882  0.16570675  1  0.078379  0  0.106268  0.112661  0  0.999924  0
H  H49  1  0.32364992  0.97198461  0.15020655  1  0.120515  0  0.119194  0.096227  0  0.987444  0
H  H50  1  0.48385970  0.10800514  0.31758751  1  0.031801  0  0.094418  0.099699  0  1.035044  0
H  H51  1  0.54322327  0.28894343  0.24291678  1  0.077754  0  0.104293  0.107502  0  0.983746  0
H  H52  1  0.48545702  0.07760936  0.20338520  1  0.118855  0  0.105402  0.10569  0  0.986786  0
H  H53  1  0.55694390  0.25420905  0.12830798  1  0.088858  0  0.096644  0.115197  0  1.037541  0
H  H54  1  0.36578203  0.46696556  0.36246526  1  0.096755  0  0.117839  0.090538  0  0.996134  0
H  H55  1  0.18462972  0.47389005  0.36057551  1  0.077076  0  0.108043  0.11524  0  0.996098  0
H  H56  1  0.18598930  0.32594148  0.53721280  1  0.147179  0  0.113595  0.129751  0  0.996255  0
H  H57  1  0.36807783  0.32490708  0.53113130  1  0.107149  0  0.117263  0.087347  0  1.015825  0
H  H58  1  0.03787406  0.36327560  0.49771554  1  0.138604  0  0.109692  0.12806  0  1.04415  0
H  H59  1  0.02157812  0.46992245  0.37215376  1  0.031022  0  0.099309  0.090152  0  1.02574  0
H  H60  1  0.71482123  0.35028863  0.52271831  1  0.146364  0  0.114114  0.08942  0  1.017819  0
H  H61  1  0.89530491  0.36033628  0.51548603  1  0.156313  0  0.110248  0.130329  0  1.026279  0
H  H62  1  0.85631850  0.49061963  0.33429145  1  0.078739  0  0.106277  0.112682  0  0.999868  0
H  H63  1  0.67634302  0.47197825  0.34979763  1  0.120689  0  0.119208  0.09627  0  0.987178  0
H  H64  1  0.01610798  0.60800965  0.31758246  1  0.031618  0  0.094281  0.099619  0  1.035111  0
H  H65  1  0.95677644  0.78895139  0.24290385  1  0.077714  0  0.104271  0.107426  0  0.983826  0
H  H66  1  0.01454451  0.57760881  0.20338571  1  0.118836  0  0.1054  0.105731  0  0.98683  0
H  H67  1  0.94308022  0.75420838  0.12830251  1  0.089087  0  0.096611  0.115173  0  1.03759  0
H  H68  1  0.13421681  0.96696219  0.36246771  1  0.09671  0  0.117774  0.090494  0  0.996116  0
H  H69  1  0.31537200  0.97388789  0.36058250  1  0.077317  0  0.108011  0.115222  0  0.996166  0
H  H70  1  0.31400317  0.82592990  0.53721654  1  0.147453  0  0.113584  0.129705  0  0.996191  0
H  H71  1  0.13191688  0.82489937  0.53113191  1  0.107041  0  0.117283  0.087326  0  1.015934  0
H  H72  1  0.46212653  0.86326033  0.49771419  1  0.138483  0  0.109641  0.127967  0  1.044152  0
H  H73  1  0.47840969  0.96992740  0.37216023  1  0.031444  0  0.099227  0.090109  0  1.025803  0
H  H74  1  0.78516361  0.85027938  0.52271473  1  0.146244  0  0.114152  0.089487  0  1.017898  0
H  H75  1  0.60468577  0.86034105  0.51548301  1  0.156351  0  0.110186  0.130206  0  1.026527  0
H  H76  1  0.64367427  0.99063289  0.33429480  1  0.078543  0  0.106254  0.112631  0  0.999916  0
H  H77  1  0.82364828  0.97198185  0.34980088  1  0.120784  0  0.11924  0.096329  0  0.98723  0
H  H78  1  0.98388339  0.10801490  0.18240958  1  0.032023  0  0.094268  0.099633  0  1.034918  0
H  H79  1  0.04323358  0.28894554  0.25709424  1  0.077704  0  0.104317  0.107468  0  0.983891  0
H  H80  1  0.98544630  0.07760982  0.29660994  1  0.118816  0  0.105365  0.105657  0  0.986844  0
H  H81  1  0.05692709  0.25419823  0.37169873  1  0.088944  0  0.096589  0.115184  0  1.037535  0
H  H82  1  0.86579002  0.46695614  0.13752996  1  0.096681  0  0.117804  0.090515  0  0.996227  0
H  H83  1  0.68463770  0.47388934  0.13942122  1  0.077141  0  0.108001  0.115206  0  0.99625  0
H  H84  1  0.68599263  0.32593737  0.96278492  1  0.147486  0  0.11357  0.129715  0  0.996251  0
H  H85  1  0.86807892  0.32490229  0.96886400  1  0.107001  0  0.117268  0.087324  0  1.015868  0
H  H86  1  0.53788162  0.36327822  0.00227856  1  0.138632  0  0.109705  0.127988  0  1.04419  0
H  H87  1  0.52158035  0.46990136  0.12784811  1  0.031089  0  0.099297  0.089996  0  1.025748  0
H  H88  1  0.21482913  0.35028585  0.97727661  1  0.146076  0  0.1142  0.089587  0  1.017834  0
H  H89  1  0.39530984  0.36033138  0.98451114  1  0.156531  0  0.110247  0.130339  0  1.026359  0
H  H90  1  0.35632148  0.49060367  0.16570618  1  0.078383  0  0.106316  0.112741  0  0.999792  0
H  H91  1  0.17634685  0.47196869  0.15019681  1  0.120607  0  0.119252  0.096382  0  0.987158  0
H  H92  1  0.98387412  0.39198777  0.68240350  1  0.031933  0  0.094342  0.099707  0  1.035049  0
H  H93  1  0.04320638  0.21104386  0.75708302  1  0.077641  0  0.104318  0.107605  0  0.983667  0
H  H94  1  0.98544342  0.42238354  0.79660348  1  0.11885  0  0.10538  0.105579  0  0.98688  0
H  H95  1  0.05690406  0.24577889  0.87168854  1  0.089148  0  0.096607  0.115157  0  1.037636  0
H  H96  1  0.86576602  0.03301493  0.63752797  1  0.096921  0  0.117696  0.090389  0  0.996112  0
H  H97  1  0.68461447  0.02609938  0.63940253  1  0.077059  0  0.107964  0.115151  0  0.996407  0
H  H98  1  0.68600299  0.17407767  0.46277868  1  0.1473  0  0.113683  0.129847  0  0.996363  0
H  H99  1  0.86809000  0.17510674  0.46887305  1  0.107052  0  0.117243  0.08733  0  1.015841  0
H  H100  1  0.53786797  0.13673854  0.50227825  1  0.138185  0  0.109713  0.128112  0  1.044108  0
H  H101  1  0.52159282  0.03007945  0.62783267  1  0.031151  0  0.099225  0.089996  0  1.025779  0
H  H102  1  0.21482359  0.14969991  0.47728466  1  0.146434  0  0.114148  0.089419  0  1.018035  0
H  H103  1  0.39530289  0.13965709  0.48451823  1  0.156371  0  0.110188  0.130334  0  1.026556  0
H  H104  1  0.35632970  0.00935583  0.66570181  1  0.078435  0  0.106276  0.11269  0  0.999973  0
H  H105  1  0.17635569  0.02800760  0.65020176  1  0.1206  0  0.119182  0.09623  0  0.987382  0
H  H106  1  0.01613370  0.89201152  0.81758055  1  0.031501  0  0.09445  0.099763  0  1.034962  0
H  H107  1  0.95675289  0.71106276  0.74292322  1  0.077737  0  0.104311  0.107481  0  0.983753  0
H  H108  1  0.01454162  0.92239050  0.70338574  1  0.118835  0  0.105384  0.105633  0  0.986751  0
H  H109  1  0.94305574  0.74578033  0.62831317  1  0.088832  0  0.096644  0.115144  0  1.037496  0
H  H110  1  0.13423364  0.53302896  0.86247360  1  0.097001  0  0.117792  0.090468  0  0.996085  0
H  H111  1  0.31538742  0.52610590  0.86059486  1  0.077175  0  0.108006  0.115176  0  0.996332  0
H  H112  1  0.31400113  0.67407310  0.03722976  1  0.147084  0  0.113589  0.129767  0  0.99632  0
H  H113  1  0.13191192  0.67510310  0.03113493  1  0.106955  0  0.117236  0.087273  0  1.015837  0
H  H114  1  0.46213402  0.63673225  0.99772732  1  0.138124  0  0.109663  0.128056  0  1.044184  0
H  H115  1  0.47840175  0.53007866  0.87216658  1  0.031577  0  0.099208  0.089958  0  1.025783  0
H  H116  1  0.78516973  0.64972317  0.02270888  1  0.146481  0  0.114161  0.089477  0  1.017889  0
H  H117  1  0.60468903  0.63966676  0.01548084  1  0.156264  0  0.110237  0.130277  0  1.026289  0
H  H118  1  0.64367082  0.50934808  0.83429692  1  0.078072  0  0.106264  0.112692  0  0.999834  0
H  H119  1  0.82364691  0.52800408  0.84979888  1  0.120747  0  0.119193  0.096248  0  0.987234  0
C  C120  1  0.51498097  0.25389142  0.86397102  1  1.548745  0  0.182101  0.593442  0  4.262799  0
C  C121  1  0.50488397  0.31689908  0.80850744  1  0.065235  0  -0.094864  -0.21926  0  3.908701  0
C  C122  1  0.52154569  0.28660787  0.74992313  1  -0.155136  0  -0.083645  -0.043125  0  4.031731  0
C  C123  1  0.51108777  0.34795740  0.69640659  1  -0.067938  0  -0.080212  -0.033569  0  4.027275  0
C  C124  1  0.53024093  0.31873270  0.63785935  1  -0.070202  0  -0.101468  -0.240066  0  3.899853  0
C  C125  1  0.51621974  0.38283952  0.58343952  1  1.548111  0  0.204202  0.611217  0  4.232592  0
C  C126  1  0.32274553  0.06302989  0.90039717  1  0.468809  0  0.04427  0.09472  0  3.956832  0
C  C127  1  0.22167171  0.05995676  0.89971324  1  -0.001689  0  -0.084575  -0.182933  0  3.941913  0
C  C128  1  0.16903823  0.09951172  0.94976464  1  -0.059269  0  0.00985  0.149675  0  4.021818  0
C  C129  1  0.22368497  0.14169388  0.99783267  1  0.001625  0  -0.075675  -0.168633  0  3.905831  0
C  C130  1  0.32467496  0.14189589  0.99473143  1  0.420934  0  0.049562  0.105401  0  3.950948  0
C  C131  1  0.06351812  0.10100631  0.95559250  1  0.014122  0  -0.07471  -0.113208  0  3.927541  0
C  C132  1  0.99771967  0.06565564  0.91480777  1  -0.037104  0  -0.077323  -0.11419  0  3.946916  0
C  C133  1  0.74995340  0.11982050  0.98167936  1  0.398874  0  0.041231  0.086297  0  3.968106  0
C  C134  1  0.85055989  0.11366327  0.97710009  1  -0.012477  0  -0.081025  -0.176463  0  3.909068  0
C  C135  1  0.89269023  0.07369797  0.92331359  1  -0.058097  0  0.009421  0.153479  0  4.010488  0
C  C136  1  0.82822860  0.04176266  0.87681258  1  -0.006456  0  -0.083807  -0.182567  0  3.938416  0
C  C137  1  0.72823091  0.05162406  0.88494946  1  0.457255  0  0.046358  0.099106  0  3.951781  0
C  C138  1  0.48504368  0.75390553  0.63602793  1  1.548184  0  0.181834  0.593005  0  4.263216  0
C  C139  1  0.49513595  0.81690919  0.69149586  1  0.064717  0  -0.095095  -0.219275  0  3.908336  0
C  C140  1  0.47848315  0.78661271  0.75008008  1  -0.155174  0  -0.083246  -0.04269  0  4.031382  0
C  C141  1  0.48894218  0.84795532  0.80359540  1  -0.067299  0  -0.080334  -0.033673  0  4.027505  0
C  C142  1  0.46978626  0.81873189  0.86214256  1  -0.070693  0  -0.101431  -0.240115  0  3.89977  0
C  C143  1  0.48379324  0.88284846  0.91656489  1  1.548326  0  0.204201  0.611146  0  4.23259  0
C  C144  1  0.67725177  0.56301442  0.59960866  1  0.468877  0  0.044073  0.094475  0  3.957283  0
C  C145  1  0.77832634  0.55993713  0.60029583  1  -0.00081  0  -0.084272  -0.18249  0  3.941637  0
C  C146  1  0.83096178  0.59949724  0.55024408  1  -0.058827  0  0.009775  0.149465  0  4.021721  0
C  C147  1  0.77631553  0.64168369  0.50217523  1  0.000305  0  -0.075718  -0.168671  0  3.905614  0
C  C148  1  0.67532699  0.64188697  0.50527416  1  0.419108  0  0.049481  0.105373  0  3.950707  0
C  C149  1  0.93648042  0.60099919  0.54441112  1  0.013625  0  -0.074736  -0.113068  0  3.927909  0
C  C150  1  0.00227981  0.56565599  0.58519575  1  -0.03769  0  -0.077352  -0.114322  0  3.946965  0
C  C151  1  0.25005452  0.61981395  0.51831504  1  0.398332  0  0.041255  0.086243  0  3.967974  0
C  C152  1  0.14944660  0.61366020  0.52289476  1  -0.011515  0  -0.081069  -0.176237  0  3.909199  0
C  C153  1  0.10731430  0.57370277  0.57668486  1  -0.05823  0  0.00937  0.153274  0  4.010367  0
C  C154  1  0.17178121  0.54177253  0.62318671  1  -0.007669  0  -0.083723  -0.182549  0  3.938308  0
C  C155  1  0.27177593  0.55163044  0.61505217  1  0.457363  0  0.04626  0.099148  0  3.951765  0
C  C156  1  0.48500988  0.74613427  0.13604691  1  1.552079  0  0.182171  0.593267  0  4.263511  0
C  C157  1  0.49509667  0.68311719  0.19150261  1  0.064812  0  -0.094691  -0.218992  0  3.908596  0
C  C158  1  0.47844297  0.71339607  0.25009109  1  -0.155084  0  -0.083649  -0.043229  0  4.031873  0
C  C159  1  0.48890599  0.65204292  0.30360346  1  -0.067816  0  -0.080343  -0.033786  0  4.027329  0
C  C160  1  0.46975866  0.68126399  0.36215163  1  -0.070341  0  -0.101357  -0.239983  0  3.899614  0
C  C161  1  0.48377694  0.61714775  0.41657053  1  1.548401  0  0.204128  0.61138  0  4.232697  0
C  C162  1  0.67726354  0.93699000  0.09960500  1  0.468616  0  0.044099  0.094665  0  3.957138  0
C  C163  1  0.77833809  0.94006966  0.10029311  1  -0.000854  0  -0.084405  -0.182651  0  3.941934  0
C  C164  1  0.83097157  0.90050382  0.05023939  1  -0.059605  0  0.009922  0.149794  0  4.02112  0
C  C165  1  0.77632484  0.85831441  0.00216718  1  0.001131  0  -0.075763  -0.168711  0  3.905643  0
C  C166  1  0.67533922  0.85811023  0.00526843  1  0.419385  0  0.049518  0.105277  0  3.950743  0
C  C167  1  0.93649752  0.89900416  0.04440782  1  0.014271  0  -0.074876  -0.113505  0  3.927736  0
C  C168  1  0.00229524  0.93434758  0.08519393  1  -0.037894  0  -0.077389  -0.114216  0  3.947064  0
C  C169  1  0.25006953  0.88018852  0.01831957  1  0.39693  0  0.041298  0.086264  0  3.96776  0
C  C170  1  0.14945939  0.88634357  0.02289698  1  -0.011383  0  -0.080969  -0.175967  0  3.908797  0
C  C171  1  0.10732395  0.92630308  0.07668163  1  -0.058436  0  0.009294  0.152967  0  4.010658  0
C  C172  1  0.17179505  0.95823694  0.12318589  1  -0.007375  0  -0.083672  -0.182449  0  3.938351  0
C  C173  1  0.27179056  0.94837843  0.11505596  1  0.457244  0  0.046167  0.099008  0  3.952227  0
C  C174  1  0.51495519  0.24610132  0.36396822  1  1.548601  0  0.181853  0.59316  0  4.263098  0
C  C175  1  0.50487532  0.18309620  0.30850122  1  0.06491  0  -0.09495  -0.219253  0  3.908759  0
C  C176  1  0.52153614  0.21339051  0.24991792  1  -0.154786  0  -0.083499  -0.042952  0  4.0316  0
C  C177  1  0.51108294  0.15204500  0.19640213  1  -0.068103  0  -0.080345  -0.033791  0  4.027386  0
C  C178  1  0.53024104  0.18126916  0.13785591  1  -0.070285  0  -0.101472  -0.240093  0  3.899841  0
C  C179  1  0.51622604  0.11715331  0.08343450  1  1.548228  0  0.204312  0.61146  0  4.23274  0
C  C180  1  0.32274783  0.43698880  0.40039027  1  0.469087  0  0.044098  0.09466  0  3.957244  0
C  C181  1  0.22167326  0.44006391  0.39969846  1  -0.000662  0  -0.084375  -0.182742  0  3.941554  0
C  C182  1  0.16903490  0.40050381  0.44974790  1  -0.059062  0  0.009886  0.14986  0  4.021279  0
C  C183  1  0.22368042  0.35831881  0.49781999  1  0.000722  0  -0.075843  -0.169004  0  3.905859  0
C  C184  1  0.32466823  0.35811842  0.49472059  1  0.419617  0  0.049481  0.105441  0  3.951378  0
C  C185  1  0.06351042  0.39900330  0.45558086  1  0.014166  0  -0.074752  -0.113237  0  3.927425  0
C  C186  1  0.99770010  0.43433780  0.41480040  1  -0.037417  0  -0.07752  -0.114448  0  3.947111  0
C  C187  1  0.74993196  0.38018709  0.48168388  1  0.396961  0  0.041314  0.086463  0  3.968024  0
C  C188  1  0.85054425  0.38633794  0.47710324  1  -0.011676  0  -0.081111  -0.176367  0  3.909123  0
C  C189  1  0.89267436  0.42628958  0.42331731  1  -0.058161  0  0.009344  0.153182  0  4.010674  0
C  C190  1  0.82820672  0.45821691  0.37681547  1  -0.007668  0  -0.083658  -0.182377  0  3.938157  0
C  C191  1  0.72821127  0.44836408  0.38495279  1  0.457509  0  0.046087  0.098889  0  3.95193  0
C  C192  1  0.98501687  0.74610623  0.36396262  1  1.549216  0  0.182093  0.593322  0  4.26331  0
C  C193  1  0.99510482  0.68309961  0.30849883  1  0.065224  0  -0.094808  -0.219106  0  3.908769  0
C  C194  1  0.97846031  0.71339111  0.24991234  1  -0.154657  0  -0.083575  -0.043045  0  4.031821  0
C  C195  1  0.98892229  0.65204118  0.19639559  1  -0.067597  0  -0.080322  -0.033847  0  4.027559  0
C  C196  1  0.96977686  0.68127052  0.13784943  1  -0.070922  0  -0.1014  -0.239967  0  3.899766  0
C  C197  1  0.98378680  0.61715315  0.08342844  1  1.54844  0  0.204271  0.611367  0  4.232583  0
C  C198  1  0.17725162  0.93698520  0.40039351  1  0.468861  0  0.044098  0.094573  0  3.9573  0
C  C199  1  0.27832545  0.94005760  0.39970464  1  -0.000559  0  -0.08432  -0.182706  0  3.941732  0
C  C200  1  0.33096292  0.90049649  0.44975252  1  -0.059143  0  0.009819  0.149625  0  4.021513  0
C  C201  1  0.27631509  0.85831033  0.49782246  1  0.000327  0  -0.075736  -0.168746  0  3.905684  0
C  C202  1  0.17532657  0.85810903  0.49472570  1  0.419707  0  0.049416  0.105311  0  3.950956  0
C  C203  1  0.43648299  0.89899397  0.45558375  1  0.013918  0  -0.074607  -0.11285  0  3.92737  0
C  C204  1  0.50228508  0.93434094  0.41480280  1  -0.037741  0  -0.077394  -0.114468  0  3.946962  0
C  C205  1  0.75005230  0.88017803  0.48168736  1  0.398625  0  0.041124  0.086212  0  3.967961  0
C  C206  1  0.64944584  0.88633594  0.47710611  1  -0.011646  0  -0.080863  -0.175958  0  3.90911  0
C  C207  1  0.60731956  0.92629360  0.42331661  1  -0.058319  0  0.009265  0.153044  0  4.010527  0
C  C208  1  0.67178664  0.95822494  0.37681641  1  -0.007593  0  -0.083686  -0.182282  0  3.938333  0
C  C209  1  0.77177990  0.94836940  0.38495064  1  0.457293  0  0.046001  0.098673  0  3.951649  0
C  C210  1  0.01498246  0.24611993  0.13603860  1  1.549252  0  0.182059  0.593397  0  4.263284  0
C  C211  1  0.00489633  0.18310725  0.19149758  1  0.065485  0  -0.094716  -0.219147  0  3.908795  0
C  C212  1  0.02154213  0.21339475  0.25008509  1  -0.155364  0  -0.0836  -0.042972  0  4.031855  0
C  C213  1  0.01107758  0.15204383  0.30359980  1  -0.067555  0  -0.080343  -0.03378  0  4.027359  0
C  C214  1  0.03022576  0.18126335  0.36214883  1  -0.070419  0  -0.101341  -0.239915  0  3.899741  0
C  C215  1  0.01620889  0.11714356  0.41656501  1  1.548654  0  0.204072  0.610997  0  4.233272  0
C  C216  1  0.82275465  0.43698635  0.09960686  1  0.468747  0  0.044196  0.094592  0  3.957003  0
C  C217  1  0.72167570  0.44006292  0.10029852  1  -0.000479  0  -0.084368  -0.182623  0  3.941546  0
C  C218  1  0.66903918  0.40050389  0.05024868  1  -0.058854  0  0.009807  0.149566  0  4.021441  0
C  C219  1  0.72368434  0.35831564  0.00217629  1  0.000328  0  -0.075715  -0.168709  0  3.905595  0
C  C220  1  0.82466848  0.35811237  0.00527120  1  0.419548  0  0.049429  0.105367  0  3.950753  0
C  C221  1  0.56351621  0.39899754  0.04441419  1  0.01414  0  -0.074717  -0.113014  0  3.9275  0
C  C222  1  0.49770735  0.43432776  0.08519709  1  -0.037654  0  -0.077507  -0.114314  0  3.94692  0
C  C223  1  0.24994190  0.38017801  0.01830682  1  0.39805  0  0.041207  0.086226  0  3.968025  0
C  C224  1  0.35055051  0.38632889  0.02288948  1  -0.011988  0  -0.081003  -0.176231  0  3.909491  0
C  C225  1  0.39267583  0.42627730  0.07668049  1  -0.058565  0  0.009321  0.153121  0  4.010674  0
C  C226  1  0.32820857  0.45820425  0.12318262  1  -0.006796  0  -0.083664  -0.182447  0  3.938153  0
C  C227  1  0.22821391  0.44835644  0.11504652  1  0.457064  0  0.045945  0.098731  0  3.951701  0
C  C228  1  0.01496814  0.25388539  0.63602843  1  1.548794  0  0.182034  0.593411  0  4.262947  0
C  C229  1  0.00487728  0.31689491  0.69149037  1  0.065088  0  -0.094923  -0.219264  0  3.908436  0
C  C230  1  0.02152106  0.28660414  0.75007686  1  -0.155238  0  -0.083571  -0.043246  0  4.031484  0
C  C231  1  0.01106346  0.34795116  0.80359175  1  -0.067612  0  -0.080295  -0.033519  0  4.027382  0
C  C232  1  0.03021034  0.31872472  0.86213884  1  -0.070371  0  -0.101429  -0.240052  0  3.899677  0
C  C233  1  0.01621061  0.38284571  0.91656122  1  1.548223  0  0.204058  0.610907  0  4.233072  0
C  C234  1  0.82273704  0.06300351  0.59960310  1  0.469152  0  0.044294  0.094887  0  3.957223  0
C  C235  1  0.72165811  0.05993257  0.60029012  1  -0.000507  0  -0.084497  -0.182866  0  3.942073  0
C  C236  1  0.66903303  0.09950455  0.55024039  1  -0.059934  0  0.009969  0.149883  0  4.021535  0
C  C237  1  0.72368597  0.14169579  0.50217229  1  0.001178  0  -0.075784  -0.168879  0  3.906044  0
C  C238  1  0.82467156  0.14189274  0.50527508  1  0.419278  0  0.049475  0.105486  0  3.950905  0
C  C239  1  0.56350713  0.10100925  0.54440683  1  0.013583  0  -0.074827  -0.113311  0  3.92756  0
C  C240  1  0.49771379  0.06566156  0.58519288  1  -0.036756  0  -0.077353  -0.114176  0  3.946854  0
C  C241  1  0.24993928  0.11980561  0.51831156  1  0.396951  0  0.041345  0.086533  0  3.967672  0
C  C242  1  0.35054866  0.11366075  0.52289143  1  -0.011689  0  -0.081026  -0.176289  0  3.909271  0
C  C243  1  0.39267858  0.07370092  0.57668093  1  -0.057925  0  0.009257  0.153056  0  4.01054  0
C  C244  1  0.32821441  0.04176450  0.62318576  1  -0.007672  0  -0.0837  -0.18243  0  3.938457  0
C  C245  1  0.22821970  0.05161424  0.61505339  1  0.457222  0  0.046229  0.098986  0  3.95184  0
C  C246  1  0.98503755  0.75392969  0.86397608  1  1.54874  0  0.182127  0.593878  0  4.262897  0
C  C247  1  0.99511201  0.81691989  0.80850274  1  0.064548  0  -0.095026  -0.219582  0  3.908707  0
C  C248  1  0.97844799  0.78661935  0.74991894  1  -0.15461  0  -0.083539  -0.042899  0  4.031612  0
C  C249  1  0.98890816  0.84795359  0.69640191  1  -0.068032  0  -0.080382  -0.033782  0  4.02744  0
C  C250  1  0.96975998  0.81872537  0.63785473  1  -0.070326  0  -0.101336  -0.239863  0  3.899535  0
C  C251  1  0.98377831  0.88283284  0.58343253  1  1.548269  0  0.20436  0.61146  0  4.23269  0
C  C252  1  0.17726245  0.56301107  0.90039995  1  0.468884  0  0.044092  0.094634  0  3.957252  0
C  C253  1  0.27833556  0.55993885  0.89971524  1  -0.001232  0  -0.08448  -0.182799  0  3.942163  0
C  C254  1  0.33096406  0.59950585  0.94976416  1  -0.05965  0  0.009966  0.149797  0  4.021899  0
C  C255  1  0.27631599  0.64168903  0.99783005  1  0.001743  0  -0.075688  -0.168733  0  3.905936  0
C  C256  1  0.17532529  0.64188867  0.99472634  1  0.419621  0  0.049502  0.105454  0  3.951139  0
C  C257  1  0.43648995  0.60100568  0.95559447  1  0.013633  0  -0.074798  -0.113351  0  3.927571  0
C  C258  1  0.50228714  0.56565878  0.91480925  1  -0.03721  0  -0.077375  -0.114114  0  3.946765  0
C  C259  1  0.75005697  0.61982014  0.98168562  1  0.398025  0  0.041288  0.086518  0  3.967714  0
C  C260  1  0.64945273  0.61366345  0.97710389  1  -0.011731  0  -0.081053  -0.176318  0  3.909377  0
C  C261  1  0.60732012  0.57369982  0.92331798  1  -0.058019  0  0.009367  0.153219  0  4.010733  0
C  C262  1  0.67178082  0.54176344  0.87682047  1  -0.007248  0  -0.083741  -0.182544  0  3.938479  0
C  C263  1  0.77178131  0.55161996  0.88495195  1  0.45758  0  0.046304  0.099071  0  3.951967  0
N  N264  1  0.37432555  0.10267809  0.94729077  1  -1.232399  0  -0.318684  -0.234419  0  3.518048  0
N  N265  1  0.68895077  0.09011247  0.93659286  1  -1.234165  0  -0.320739  -0.228415  0  3.508326  0
N  N266  1  0.62566861  0.60266544  0.55271424  1  -1.230783  0  -0.318566  -0.234208  0  3.517602  0
N  N267  1  0.31105805  0.59011101  0.56340563  1  -1.233682  0  -0.320658  -0.228322  0  3.507764  0
N  N268  1  0.62567551  0.89733093  0.05271094  1  -1.230776  0  -0.318514  -0.23435  0  3.517506  0
N  N269  1  0.31107289  0.90989002  0.06340885  1  -1.232743  0  -0.320536  -0.228185  0  3.508051  0
N  N270  1  0.37432369  0.39733995  0.44728237  1  -1.231466  0  -0.318513  -0.234279  0  3.518156  0
N  N271  1  0.68893280  0.40988786  0.43659840  1  -1.233005  0  -0.320482  -0.228255  0  3.508427  0
N  N272  1  0.12567270  0.89733373  0.44728624  1  -1.231419  0  -0.318509  -0.234157  0  3.517611  0
N  N273  1  0.81106329  0.90988137  0.43659752  1  -1.233898  0  -0.320427  -0.228167  0  3.507466  0
N  N274  1  0.87433087  0.39733498  0.05271217  1  -1.231165  0  -0.318545  -0.234209  0  3.517545  0
N  N275  1  0.18893292  0.40987984  0.06339814  1  -1.233219  0  -0.320471  -0.228184  0  3.507719  0
N  N276  1  0.87432689  0.10265789  0.55271594  1  -1.231179  0  -0.318509  -0.23442  0  3.517801  0
N  N277  1  0.18892682  0.09010082  0.56340326  1  -1.232422  0  -0.3206  -0.228339  0  3.507442  0
N  N278  1  0.12567893  0.60266316  0.94728954  1  -1.23125  0  -0.318455  -0.234158  0  3.517884  0
N  N279  1  0.81106376  0.59010816  0.93659430  1  -1.233847  0  -0.320697  -0.228492  0  3.507853  0
O  O280  1  0.52828210  0.16237977  0.85516537  1  -1.164573  0  -0.34038  -0.570783  0  2.261226  0
O  O281  1  0.50989568  0.29271906  0.91698161  1  -1.179451  0  -0.332585  -0.573443  0  2.139327  0
O  O282  1  0.47209382  0.46275226  0.59160468  1  -1.198129  0  -0.319456  -0.571624  0  2.418122  0
O  O283  1  0.54887350  0.35038989  0.53183506  1  -1.169801  0  -0.31263  -0.5478  0  2.360298  0
O  O284  1  0.47172776  0.66239908  0.64482591  1  -1.164008  0  -0.340169  -0.570476  0  2.261599  0
O  O285  1  0.49014041  0.79274217  0.58301884  1  -1.179118  0  -0.332522  -0.573304  0  2.139273  0
O  O286  1  0.52791870  0.96276235  0.90839624  1  -1.198306  0  -0.31946  -0.571549  0  2.418056  0
O  O287  1  0.45113091  0.85040446  0.96816833  1  -1.170155  0  -0.312587  -0.547764  0  2.360411  0
O  O288  1  0.47173062  0.83764883  0.14485534  1  -1.165258  0  -0.340402  -0.57068  0  2.261174  0
O  O289  1  0.49007839  0.70731823  0.08303215  1  -1.181623  0  -0.332724  -0.573474  0  2.139808  0
O  O290  1  0.52791233  0.53724154  0.40840259  1  -1.198253  0  -0.319372  -0.571667  0  2.418122  0
O  O291  1  0.45111588  0.64959086  0.46817081  1  -1.17021  0  -0.312579  -0.547823  0  2.360457  0
O  O292  1  0.52827621  0.33761139  0.35516699  1  -1.164394  0  -0.340337  -0.570705  0  2.261215  0
O  O293  1  0.50984460  0.20727338  0.41697824  1  -1.179184  0  -0.332417  -0.573262  0  2.139426  0
O  O294  1  0.47209183  0.03724957  0.09159991  1  -1.198155  0  -0.319486  -0.571704  0  2.418451  0
O  O295  1  0.54890223  0.14959586  0.03183246  1  -1.169969  0  -0.312621  -0.547913  0  2.360276  0
O  O296  1  0.97173622  0.83762000  0.35516051  1  -1.164525  0  -0.340344  -0.570755  0  2.261299  0
O  O297  1  0.99009300  0.70727391  0.41697031  1  -1.179703  0  -0.332611  -0.573324  0  2.139452  0
O  O298  1  0.02791516  0.53724387  0.09159481  1  -1.19837  0  -0.319358  -0.571608  0  2.418185  0
O  O299  1  0.95112468  0.64960023  0.03182882  1  -1.170197  0  -0.312759  -0.54794  0  2.360485  0
O  O300  1  0.02827571  0.33762717  0.14484282  1  -1.164861  0  -0.340374  -0.57074  0  2.261267  0
O  O301  1  0.00989999  0.20729377  0.08302478  1  -1.179623  0  -0.332605  -0.573504  0  2.139482  0
O  O302  1  0.97207880  0.03723346  0.40839424  1  -1.198397  0  -0.319403  -0.571527  0  2.418355  0
O  O303  1  0.04887302  0.14958069  0.46816796  1  -1.170488  0  -0.312523  -0.547722  0  2.36069  0
O  O304  1  0.02826556  0.16237960  0.64483054  1  -1.164664  0  -0.340292  -0.570666  0  2.261405  0
O  O305  1  0.00988909  0.29271988  0.58301703  1  -1.179451  0  -0.332542  -0.573417  0  2.139156  0
O  O306  1  0.97208663  0.46275645  0.90839206  1  -1.198181  0  -0.319377  -0.571445  0  2.418353  0
O  O307  1  0.04887419  0.35039646  0.96816223  1  -1.170006  0  -0.31254  -0.547622  0  2.360538  0
O  O308  1  0.97172388  0.66241665  0.85518206  1  -1.163662  0  -0.340563  -0.571023  0  2.261639  0
O  O309  1  0.99014773  0.79277615  0.91697832  1  -1.179561  0  -0.332421  -0.573496  0  2.139034  0
O  O310  1  0.02790840  0.96274003  0.59159866  1  -1.197913  0  -0.319421  -0.571652  0  2.418367  0
O  O311  1  0.95112366  0.85037758  0.53182957  1  -1.170097  0  -0.312821  -0.548009  0  2.360257  0
