# generated using pymatgen
data_CoH6C10NO4
_symmetry_space_group_name_H-M   'P 1'
_cell_length_a   9.56307526
_cell_length_b   10.77362618
_cell_length_c   11.31526225
_cell_angle_alpha   64.32030872
_cell_angle_beta   85.57742413
_cell_angle_gamma   66.46464301
_symmetry_Int_Tables_number   1
_chemical_formula_structural   CoH6C10NO4
_chemical_formula_sum   'Co4 H24 C40 N4 O16'
_cell_volume   956.74115060
_cell_formula_units_Z   4
loop_
 _symmetry_equiv_pos_site_id
 _symmetry_equiv_pos_as_xyz
  1  'x, y, z'
loop_
 _atom_site_type_symbol
 _atom_site_label
 _atom_site_symmetry_multiplicity
 _atom_site_fract_x
 _atom_site_fract_y
 _atom_site_fract_z
 _atom_site_occupancy
 _atom_site_pbe_cm5_charge
 _atom_site_pbe_ddec_charge
 _atom_site_pbe_ddec_spin_density
 _atom_site_pbe_ddec_sum_bond_order
 _atom_site_pbe_magmom
Co  Co0  1  0.50420669  0.33471850  0.04914140  1  0.662513  1.079097  2.82002  2.395299  2.578
Co  Co1  1  0.49842338  0.66546040  0.95154759  1  0.646169  1.056114  -2.787401  2.40884  -2.486
Co  Co2  1  0.17694503  0.70298439  0.82535031  1  0.679928  0.987779  2.773499  2.47267  2.534
Co  Co3  1  0.82065962  0.29696402  0.17425886  1  0.67818  0.980137  2.804721  2.497626  2.563
H  H4  1  0.32136362  0.09595897  0.95275485  1  0.114488  0.129615  -2e-05  0.989356  0.0
H  H5  1  0.67933489  0.90303961  0.04861555  1  0.114367  0.129254  6.9e-05  0.990807  0.0
H  H6  1  0.90776041  0.11707550  0.80162439  1  0.114256  0.135606  -4.7e-05  0.986676  0.0
H  H7  1  0.09272496  0.88276596  0.19936811  1  0.114722  0.136667  2.3e-05  0.986989  0.0
H  H8  1  0.90816821  0.50587427  0.82471201  1  0.119203  0.147485  3.2e-05  0.980703  0.0
H  H9  1  0.09310132  0.49405189  0.17543017  1  0.118873  0.146942  -0.000175  0.981003  0.0
H  H10  1  0.89870904  0.37337622  0.56436280  1  0.099876  0.109404  5e-06  1.035532  0.0
H  H11  1  0.10220741  0.62627141  0.43589215  1  0.100282  0.110332  1.6e-05  1.035405  0.0
H  H12  1  0.79764864  0.52806708  0.32839023  1  0.097508  0.091724  -0.000128  1.039954  0.0
H  H13  1  0.20345517  0.47083163  0.67177546  1  0.097506  0.090993  -0.000132  1.03969  0.0
H  H14  1  0.53332507  0.73404211  0.25965377  1  0.102214  0.108516  -4.4e-05  0.995808  0.0
H  H15  1  0.46774052  0.26473203  0.74011033  1  0.102352  0.108595  3.7e-05  0.994638  0.0
H  H16  1  0.37679798  0.78913044  0.43228022  1  0.098599  0.095916  -6.6e-05  1.020527  0.0
H  H17  1  0.62362469  0.20973895  0.56713845  1  0.098749  0.09583  -4e-06  1.022298  0.0
H  H18  1  0.08295898  0.79791772  0.53517775  1  0.118412  0.092531  0.000453  1.005913  0.001
H  H19  1  0.91554510  0.20299071  0.46458746  1  0.117797  0.092094  0.000511  1.005602  0.001
H  H20  1  0.83252167  0.89367320  0.39891175  1  0.112021  0.125883  0.000275  1.006185  0.0
H  H21  1  0.16633233  0.10394377  0.60175674  1  0.111803  0.125735  0.000384  1.006702  0.001
H  H22  1  0.59849210  0.93925090  0.72909626  1  0.119072  0.131745  0.000363  1.009066  0.0
H  H23  1  0.39964865  0.06209320  0.27013284  1  0.118351  0.130724  0.00016  1.009795  0.0
H  H24  1  0.85543297  0.84884283  0.84851584  1  0.113225  0.080825  0.001102  1.035163  0.001
H  H25  1  0.14236828  0.15619213  0.14971818  1  0.112714  0.079837  0.001079  1.037312  0.002
H  H26  1  0.69251786  0.43247132  0.93074512  1  0.286868  0.360488  0.002288  0.992056  0.003
H  H27  1  0.30580181  0.57128617  0.06459639  1  0.287549  0.359851  -0.00096  0.992099  -0.001
C  C28  1  0.20242235  0.38589352  0.92721655  1  0.229076  0.601343  0.006357  4.1468  0.006
C  C29  1  0.79866233  0.61400401  0.07307866  1  0.227846  0.598303  0.004148  4.15112  0.005
C  C30  1  0.12275547  0.30773476  0.89487751  1  -0.014109  -0.031716  0.005148  3.998373  0.007
C  C31  1  0.87831063  0.69184604  0.10585267  1  -0.014397  -0.029524  0.001813  4.000605  0.002
C  C32  1  0.20061916  0.15864972  0.91299760  1  -0.071633  -0.109488  0.002305  3.907485  0.003
C  C33  1  0.80017154  0.84077738  0.08807099  1  -0.071396  -0.109889  0.000508  3.909292  0.001
C  C34  1  0.12379061  0.09058794  0.87811742  1  -0.014539  -0.018751  0.000759  3.97524  0.001
C  C35  1  0.87674150  0.90894007  0.12304454  1  -0.014894  -0.016935  0.005764  3.974899  0.009
C  C36  1  0.20739035  0.93384869  0.89097778  1  0.219089  0.588571  0.003892  4.177146  0.004
C  C37  1  0.79290213  0.06500685  0.11121345  1  0.218923  0.5871  -0.000988  4.170697  -0.004
C  C38  1  0.96829084  0.17077468  0.82671486  1  -0.081847  -0.183136  0.001048  3.922158  0.001
C  C39  1  0.03240741  0.82903386  0.17407107  1  -0.08215  -0.184807  0.000273  3.921905  0.0
C  C40  1  0.89386580  0.31920690  0.80800736  1  0.080157  0.245608  -0.000423  4.062076  0.0
C  C41  1  0.10705573  0.68086553  0.19224737  1  0.080476  0.246584  0.000131  4.060981  0.0
C  C42  1  0.96868711  0.38923656  0.84054002  1  -0.079835  -0.188171  0.002419  3.92412  0.003
C  C43  1  0.03245123  0.61063327  0.15975237  1  -0.080011  -0.190451  -0.000711  3.92474  -0.001
C  C44  1  0.69431791  0.49430857  0.63002391  1  0.088247  0.24604  -0.000525  4.009468  -0.001
C  C45  1  0.30627039  0.50536956  0.36988240  1  0.08947  0.248685  0.002071  4.007667  0.003
C  C46  1  0.78481673  0.46529511  0.53474982  1  -0.111354  -0.220512  0.000477  4.019334  0.001
C  C47  1  0.21594536  0.53415874  0.46535346  1  -0.110981  -0.221389  -0.000138  4.017093  0.0
C  C48  1  0.72683527  0.55317270  0.40172540  1  -0.088514  -0.042766  -0.001314  4.013956  -0.001
C  C49  1  0.27406412  0.44583440  0.59830606  1  -0.08757  -0.039725  0.001946  4.011448  0.002
C  C50  1  0.57917741  0.66813154  0.36365838  1  -0.0999  -0.106396  0.000198  4.010239  0.0
C  C51  1  0.42169627  0.33085616  0.63616886  1  -0.099598  -0.106626  -0.000235  4.00838  0.0
C  C52  1  0.49126159  0.69812314  0.45991234  1  -0.082053  -0.070504  -0.001329  3.990095  -0.002
C  C53  1  0.50927785  0.30086559  0.53977051  1  -0.081482  -0.069244  0.001332  3.988198  0.001
C  C54  1  0.54918265  0.61528571  0.59369398  1  -0.024239  -0.135126  0.001442  3.95102  0.002
C  C55  1  0.45101860  0.38389039  0.40604328  1  -0.024378  -0.136361  0.005685  3.951866  0.009
C  C56  1  0.46379543  0.65983985  0.69512196  1  0.226004  0.623535  0.001405  4.13286  0.0
C  C57  1  0.53583419  0.33915283  0.30471863  1  0.225554  0.620879  -0.003182  4.128125  -0.008
C  C58  1  0.97256090  0.83160931  0.57306302  1  0.043219  0.088747  -0.004389  3.957204  -0.004
C  C59  1  0.02587320  0.16931039  0.42659175  1  0.042595  0.088604  -0.006229  3.957534  -0.006
C  C60  1  0.83471141  0.88346187  0.49890680  1  -0.072445  -0.175111  -0.004521  3.896116  -0.003
C  C61  1  0.16389950  0.11549053  0.50132897  1  -0.072653  -0.177949  -0.00346  3.900936  -0.002
C  C62  1  0.69618646  0.92433905  0.55354620  1  0.10753  0.204672  -0.006652  4.022606  -0.006
C  C63  1  0.30237790  0.07505264  0.44644382  1  0.106083  0.202706  -0.008969  4.02388  -0.009
C  C64  1  0.70318365  0.91067656  0.68285541  1  -0.071471  -0.176383  -0.003793  3.913585  -0.003
C  C65  1  0.29506222  0.09052865  0.31653760  1  -0.070917  -0.174532  -0.0025  3.913127  -0.001
C  C66  1  0.84528590  0.85956659  0.74891498  1  0.041039  0.094685  -0.000661  3.93994  0.0
C  C67  1  0.15275790  0.14381940  0.24985811  1  0.039617  0.092882  -0.002193  3.941809  -0.002
N  N68  1  0.97919604  0.81923814  0.69666197  1  -0.336253  -0.266204  0.023205  3.58831  0.033
N  N69  1  0.01890612  0.18431768  0.30214198  1  -0.33426  -0.259903  0.02484  3.58714  0.037
N  N70  1  0.56040887  0.97717231  0.47379477  1  -0.148232  -0.134662  -0.02596  3.238807  -0.035
N  N71  1  0.43821639  0.02168563  0.52619505  1  -0.147334  -0.131989  -0.022646  3.239573  -0.03
O  O72  1  0.12425980  0.52614527  0.89300917  1  -0.31093  -0.55324  0.043028  2.410452  0.063
O  O73  1  0.87636575  0.47397562  0.10618836  1  -0.311108  -0.552479  0.039427  2.398544  0.055
O  O74  1  0.34002824  0.30716660  0.98248352  1  -0.305089  -0.547745  0.046114  2.380067  0.067
O  O75  1  0.66093226  0.69355709  0.01812848  1  -0.30725  -0.549386  -0.034675  2.393773  -0.044
O  O76  1  0.12568270  0.87758801  0.86416064  1  -0.31711  -0.583754  0.046411  2.43134  0.068
O  O77  1  0.87397026  0.12015978  0.14061065  1  -0.314803  -0.580108  0.047886  2.44421  0.073
O  O78  1  0.35151575  0.87100879  0.92388091  1  -0.305731  -0.552163  -0.032033  2.375024  -0.044
O  O79  1  0.64886631  0.12901777  0.07716636  1  -0.305757  -0.55393  0.044321  2.374754  0.069
O  O80  1  0.73732486  0.39910383  0.76389500  1  -0.157299  -0.233735  0.000702  2.593229  0.001
O  O81  1  0.26359908  0.60108140  0.23619760  1  -0.157027  -0.23296  -0.000247  2.591113  0.0
O  O82  1  0.53969650  0.67391194  0.77221626  1  -0.30219  -0.558716  -0.028693  2.405056  -0.046
O  O83  1  0.45957796  0.32653743  0.22654843  1  -0.300495  -0.558566  0.044135  2.410166  0.077
O  O84  1  0.32117890  0.68428988  0.69414294  1  -0.308663  -0.562855  0.051815  2.375147  0.082
O  O85  1  0.67911534  0.31236542  0.30622641  1  -0.307038  -0.559637  0.05565  2.389067  0.091
O  O86  1  0.64826814  0.43114080  0.01198666  1  -0.562341  -0.907732  0.060828  2.449177  0.095
O  O87  1  0.35315444  0.57161928  0.98476290  1  -0.561248  -0.903405  0.002554  2.440308  0.013
