# generated using pymatgen
data_CdH26C40S4NO9
_symmetry_space_group_name_H-M   'P 1'
_cell_length_a   8.84773504
_cell_length_b   12.47836703
_cell_length_c   19.85654641
_cell_angle_alpha   82.11646966
_cell_angle_beta   77.76199167
_cell_angle_gamma   87.75059815
_symmetry_Int_Tables_number   1
_chemical_formula_structural   CdH26C40S4NO9
_chemical_formula_sum   'Cd2 H52 C80 S8 N2 O18'
_cell_volume   2122.08378990
_cell_formula_units_Z   2
loop_
 _symmetry_equiv_pos_site_id
 _symmetry_equiv_pos_as_xyz
  1  'x, y, z'
loop_
 _atom_site_type_symbol
 _atom_site_label
 _atom_site_symmetry_multiplicity
 _atom_site_fract_x
 _atom_site_fract_y
 _atom_site_fract_z
 _atom_site_occupancy
 _atom_site_pbe_bader_charge
 _atom_site_pbe_bader_spin_density
 _atom_site_pbe_cm5_charge
 _atom_site_pbe_ddec_charge
 _atom_site_pbe_ddec_spin_density
 _atom_site_pbe_ddec_sum_bond_order
 _atom_site_pbe_magmom
Cd  Cd0  1  0.62566025  0.65714080  0.01986261  1  1.335559  0  0.799508  1.011118  0  2.161147  0
Cd  Cd1  1  0.37433404  0.34285098  0.98013467  1  1.335413  0  0.799529  1.011145  0  2.161205  0
H  H2  1  0.04521448  0.76203918  0.77217797  1  0.091196  0  0.102875  0.099543  0  1.045206  0
H  H3  1  0.95477841  0.23795906  0.22782039  1  0.09081  0  0.102851  0.099489  0  1.04523  0
H  H4  1  0.03088679  0.88224306  0.66339147  1  0.10715  0  0.087908  0.08891  0  1.069845  0
H  H5  1  0.96909098  0.11775669  0.33661015  1  0.107859  0  0.08792  0.088905  0  1.069882  0
H  H6  1  0.69649961  0.08439062  0.77991549  1  0.094684  0  0.100996  0.107837  0  1.015198  0
H  H7  1  0.30349303  0.91560762  0.22009398  1  0.094757  0  0.100971  0.107827  0  1.015335  0
H  H8  1  0.70809960  0.96133915  0.88817534  1  0.092759  0  0.100361  0.097323  0  1.042733  0
H  H9  1  0.29190127  0.03865591  0.11183165  1  0.09299  0  0.10036  0.097339  0  1.042687  0
H  H10  1  0.04996322  0.13974260  0.73127050  1  0.100329  0  0.097957  0.103211  0  1.029134  0
H  H11  1  0.95003326  0.86024758  0.26873377  1  0.100461  0  0.097958  0.103242  0  1.029115  0
H  H12  1  0.09556405  0.26524639  0.81111717  1  0.103793  0  0.102044  0.10183  0  1.032562  0
H  H13  1  0.90445095  0.73474635  0.18888170  1  0.103969  0  0.102086  0.10179  0  1.032626  0
H  H14  1  0.79545624  0.50268019  0.72739695  1  0.07509  0  0.108567  0.114354  0  0.993688  0
H  H15  1  0.20457232  0.49731994  0.27260359  1  0.074838  0  0.10865  0.114445  0  0.993774  0
H  H16  1  0.74063867  0.37575644  0.65038926  1  0.062565  0  0.099086  0.101842  0  1.014866  0
H  H17  1  0.25936898  0.62424515  0.34961505  1  0.062485  0  0.099088  0.101888  0  1.014897  0
H  H18  1  0.51649920  0.85966965  0.39626157  1  0.091216  0  0.094822  0.102563  0  1.028203  0
H  H19  1  0.48348998  0.14034071  0.60373105  1  0.091559  0  0.094751  0.10249  0  1.028205  0
H  H20  1  0.49697771  0.72532738  0.31743996  1  0.102557  0  0.106245  0.10855  0  1.013435  0
H  H21  1  0.50301493  0.27468219  0.68255342  1  0.10244  0  0.106189  0.108397  0  1.013473  0
H  H22  1  0.71134993  0.94809858  0.14148932  1  0.072721  0  0.103977  0.101815  0  1.035971  0
H  H23  1  0.28866594  0.05190550  0.85850548  1  0.072738  0  0.104039  0.101857  0  1.035923  0
H  H24  1  0.73790168  0.08186055  0.21988935  1  0.084963  0  0.103906  0.112286  0  1.009909  0
H  H25  1  0.26211072  0.91814350  0.78010575  1  0.085069  0  0.103867  0.112291  0  1.009858  0
H  H26  1  0.40368126  0.13802562  0.29097289  1  0.081719  0  0.093575  0.095566  0  1.044479  0
H  H27  1  0.59633252  0.86197602  0.70901625  1  0.081196  0  0.093615  0.095536  0  1.044563  0
H  H28  1  0.33163000  0.25634816  0.19128222  1  0.098545  0  0.100008  0.102274  0  1.046208  0
H  H29  1  0.66839326  0.74364870  0.80870296  1  0.098441  0  0.099962  0.10221  0  1.046166  0
H  H30  1  0.69858873  0.47351944  0.18920618  1  0.096377  0  0.103191  0.106844  0  1.034776  0
H  H31  1  0.30140968  0.52648775  0.81079092  1  0.096531  0  0.103189  0.106852  0  1.034808  0
H  H32  1  0.77465652  0.35516995  0.28687695  1  0.070513  0  0.097329  0.101235  0  1.024224  0
H  H33  1  0.22534300  0.64483886  0.71311941  1  0.070518  0  0.097292  0.101187  0  1.024245  0
H  H34  1  0.26001874  0.61974714  0.03894104  1  0.13079  0  0.118143  0.095171  0  1.004305  0
H  H35  1  0.73997423  0.38024786  0.96105861  1  0.130901  0  0.118145  0.095199  0  1.004344  0
H  H36  1  0.01788258  0.73161775  0.04909985  1  0.139697  0  0.110049  0.124302  0  1.020309  0
H  H37  1  0.98211375  0.26838051  0.95089972  1  0.139759  0  0.110066  0.124329  0  1.02016  0
H  H38  1  0.30313967  0.01562564  0.98747995  1  0.059822  0  0.108313  0.118774  0  1.034111  0
H  H39  1  0.69686226  0.98436942  0.01253097  1  0.059962  0  0.108254  0.118772  0  1.034075  0
H  H40  1  0.53451052  0.89153625  0.98004759  1  0.11752  0  0.112194  0.079394  0  1.049077  0
H  H41  1  0.46549158  0.10845640  0.01995949  1  0.117467  0  0.112165  0.079328  0  1.049021  0
H  H42  1  0.89671488  0.90298767  0.03649393  1  0.073671  0  0.097287  0.105298  0  1.019342  0
H  H43  1  0.10328574  0.09701467  0.96351397  1  0.073611  0  0.097264  0.105371  0  1.019251  0
H  H44  1  0.98927756  0.98951726  0.07870268  1  0.050458  0  0.098324  0.106119  0  0.97635  0
H  H45  1  0.01072776  0.01048269  0.92130500  1  0.050638  0  0.098342  0.106153  0  0.97634  0
H  H46  1  0.95073862  0.61384006  0.84497157  1  0.665069  0  0.302927  0.365472  0  0.977994  0
H  H47  1  0.04927501  0.38615996  0.15502630  1  0.665103  0  0.302904  0.365414  0  0.978075  0
H  H48  1  0.52222750  0.60419285  0.17173969  1  0.659668  0  0.298179  0.357227  0  0.99685  0
H  H49  1  0.47776275  0.39581752  0.82825636  1  0.659586  0  0.298152  0.357266  0  0.996802  0
H  H50  1  0.90782938  0.59572810  0.97442278  1  0.639669  0  0.287932  0.375101  0  0.968948  0
H  H51  1  0.09217064  0.40426210  0.02557816  1  0.639608  0  0.287985  0.375112  0  0.968938  0
H  H52  1  0.88735366  0.54818907  0.05559443  1  0.669571  0  0.294601  0.395423  0  0.935775  0
H  H53  1  0.11265090  0.45180360  0.94440639  1  0.669599  0  0.294578  0.395397  0  0.935861  0
C  C54  1  0.87259677  0.77548391  0.90248710  1  1.568505  0  0.213779  0.580151  0  4.186599  0
C  C55  1  0.12740433  0.22450791  0.09751511  1  1.567911  0  0.213862  0.580133  0  4.186356  0
C  C56  1  0.87837938  0.85401182  0.83758703  1  -0.047456  0  -0.022916  -0.056719  0  3.982829  0
C  C57  1  0.12161357  0.14598076  0.16241686  1  -0.048348  0  -0.02307  -0.056883  0  3.982698  0
C  C58  1  0.96929380  0.83281845  0.77384077  1  -0.046355  0  -0.082458  -0.079759  0  3.966557  0
C  C59  1  0.03069789  0.16717897  0.22616080  1  -0.046022  0  -0.082322  -0.07955  0  3.966325  0
C  C60  1  0.96117112  0.90039544  0.71282545  1  -0.047168  0  -0.093826  -0.129679  0  3.946451  0
C  C61  1  0.03881247  0.09960191  0.28717736  1  -0.048006  0  -0.093877  -0.129777  0  3.946591  0
C  C62  1  0.86500782  0.99279625  0.71441099  1  -0.053497  0  -0.007028  0.089321  0  4.016785  0
C  C63  1  0.13497577  0.00720030  0.28559289  1  -0.053179  0  -0.007037  0.089336  0  4.017046  0
C  C64  1  0.77435694  0.01449871  0.77849946  1  -0.022619  0  -0.084285  -0.116976  0  3.946693  0
C  C65  1  0.22563237  0.98549626  0.22150858  1  -0.022983  0  -0.084249  -0.116895  0  3.946954  0
C  C66  1  0.78108811  0.94581832  0.83898711  1  -0.056797  0  -0.08112  -0.080666  0  3.971148  0
C  C67  1  0.21890702  0.05417751  0.16101781  1  -0.056125  0  -0.08108  -0.080655  0  3.971045  0
C  C68  1  0.85483353  0.06354901  0.64989999  1  -0.058888  0  -0.012687  -0.050521  0  4.022574  0
C  C69  1  0.14514766  0.93644833  0.35010656  1  -0.058885  0  -0.012591  -0.050458  0  4.022595  0
C  C70  1  0.85804899  0.17398621  0.63886678  1  -0.155361  0  -0.01482  -0.053629  0  4.020818  0
C  C71  1  0.14193106  0.82601032  0.36114044  1  -0.155826  0  -0.014869  -0.053802  0  4.020919  0
C  C72  1  0.98451602  0.46562390  0.82135461  1  1.528945  0  0.234961  0.586753  0  4.120549  0
C  C73  1  0.01550451  0.53437536  0.17864521  1  1.52919  0  0.234856  0.586617  0  4.120607  0
C  C74  1  0.99083427  0.21791697  0.73133655  1  -0.053406  0  -0.086262  -0.116014  0  3.946098  0
C  C75  1  0.00916899  0.78207892  0.26866612  1  -0.05396  0  -0.086229  -0.116057  0  3.945995  0
C  C76  1  0.01819041  0.28843713  0.77552886  1  -0.051568  0  -0.082869  -0.084718  0  3.980254  0
C  C77  1  0.98182453  0.71155643  0.22447095  1  -0.051354  0  -0.082936  -0.084719  0  3.980255  0
C  C78  1  0.94908209  0.39175809  0.77433176  1  -0.058537  0  -0.020477  -0.056716  0  3.997892  0
C  C79  1  0.05094079  0.60823957  0.22566850  1  -0.057988  0  -0.020307  -0.056377  0  3.997579  0
C  C80  1  0.85015407  0.42288957  0.72832506  1  0.049331  0  -0.078619  -0.068433  0  3.956752  0
C  C81  1  0.14986642  0.57710888  0.27167736  1  0.049299  0  -0.078886  -0.068875  0  3.957044  0
C  C82  1  0.82032802  0.35147998  0.68491118  1  -0.034478  0  -0.092234  -0.130615  0  3.961431  0
C  C83  1  0.17967857  0.64851917  0.31509243  1  -0.03472  0  -0.092158  -0.130503  0  3.961673  0
C  C84  1  0.88888165  0.24751295  0.68587224  1  -0.015154  0  -0.006313  0.090795  0  4.007504  0
C  C85  1  0.11111815  0.75248291  0.31413025  1  -0.01507  0  -0.006377  0.090869  0  4.007588  0
C  C86  1  0.79330406  0.11461131  0.52740725  1  -0.226847  0  -0.052268  -0.114029  0  4.144347  0
C  C87  1  0.20667125  0.88539084  0.47259740  1  -0.227205  0  -0.052189  -0.113771  0  4.144132  0
C  C88  1  0.74272005  0.11285578  0.46751540  1  -0.263172  0  -0.051415  -0.113815  0  4.141013  0
C  C89  1  0.25725296  0.88714716  0.53248788  1  -0.262518  0  -0.051414  -0.113852  0  4.141102  0
C  C90  1  0.65072711  0.05530080  0.36156277  1  -0.171767  0  -0.015836  -0.057835  0  4.019418  0
C  C91  1  0.34926432  0.94470795  0.63843433  1  -0.172157  0  -0.015859  -0.057873  0  4.019428  0
C  C92  1  0.62751477  0.98067914  0.31368281  1  -0.019441  0  -0.002572  0.093412  0  4.009894  0
C  C93  1  0.37248592  0.01932968  0.68631294  1  -0.019244  0  -0.002598  0.093434  0  4.009977  0
C  C94  1  0.56051549  0.87903995  0.34041310  1  -0.04142  0  -0.09289  -0.130715  0  3.953558  0
C  C95  1  0.43947946  0.12096964  0.65958058  1  -0.041805  0  -0.09282  -0.130605  0  3.953564  0
C  C96  1  0.54818714  0.80389677  0.29638135  1  0.020881  0  -0.078927  -0.075762  0  3.966381  0
C  C97  1  0.45180897  0.19611283  0.70361173  1  0.02054  0  -0.078883  -0.075596  0  3.966116  0
C  C98  1  0.60216585  0.82852533  0.22443073  1  0.017039  0  -0.021034  -0.05784  0  4.000089  0
C  C99  1  0.39783837  0.17148270  0.77556326  1  0.017219  0  -0.021042  -0.057877  0  3.999824  0
C  C100  1  0.66849933  0.92991365  0.19736081  1  -0.084411  0  -0.080764  -0.083478  0  3.966537  0
C  C101  1  0.33151183  0.07009364  0.80263362  1  -0.084742  0  -0.08071  -0.083338  0  3.966413  0
C  C102  1  0.68209517  0.00481472  0.24126178  1  -0.065808  0  -0.083999  -0.1179  0  3.944058  0
C  C103  1  0.31791257  0.99519092  0.75873311  1  -0.065415  0  -0.084029  -0.118049  0  3.944214  0
C  C104  1  0.64499750  0.16581359  0.35217514  1  -0.085033  0  -0.009984  -0.041908  0  4.006738  0
C  C105  1  0.35500090  0.83419360  0.64782247  1  -0.084879  0  -0.010003  -0.041959  0  4.006882  0
C  C106  1  0.59616956  0.23697935  0.29521289  1  -0.039849  0  -0.008997  0.082827  0  4.021766  0
C  C107  1  0.40383359  0.76302545  0.70478197  1  -0.040475  0  -0.008893  0.083094  0  4.02207  0
C  C108  1  0.46958953  0.21076360  0.26810504  1  0.00705  0  -0.088993  -0.121969  0  3.954416  0
C  C109  1  0.53042189  0.78923802  0.73188633  1  0.0077  0  -0.089118  -0.122243  0  3.954945  0
C  C110  1  0.42835412  0.27718119  0.21264107  1  -0.055187  0  -0.082949  -0.076908  0  3.958588  0
C  C111  1  0.57165736  0.72282043  0.78734778  1  -0.069859  0  -0.082848  -0.076616  0  3.958675  0
C  C112  1  0.50904004  0.37281059  0.18405831  1  -0.05009  0  -0.019715  -0.047858  0  3.966891  0
C  C113  1  0.49097605  0.62718864  0.81593386  1  -0.035494  0  -0.019653  -0.047812  0  3.966655  0
C  C114  1  0.63292986  0.40066207  0.21184429  1  -0.016971  0  -0.081753  -0.072387  0  3.954839  0
C  C115  1  0.36707325  0.59934272  0.78815260  1  -0.01691  0  -0.081764  -0.072413  0  3.954698  0
C  C116  1  0.67592867  0.33364554  0.26672013  1  -0.022249  0  -0.09625  -0.137486  0  3.966021  0
C  C117  1  0.32407317  0.66636248  0.73327709  1  -0.022014  0  -0.096317  -0.137589  0  3.966201  0
C  C118  1  0.46495386  0.44310747  0.12373399  1  1.571478  0  0.223946  0.618052  0  4.159505  0
C  C119  1  0.53505285  0.55689492  0.87626026  1  1.571695  0  0.223853  0.617949  0  4.15966  0
C  C120  1  0.59246772  0.74850815  0.17672968  1  1.510722  0  0.229661  0.58186  0  4.127979  0
C  C121  1  0.40753306  0.25149906  0.82326469  1  1.510547  0  0.229596  0.581722  0  4.12823  0
C  C122  1  0.26436788  0.70787286  0.02849010  1  0.418688  0  0.051095  0.110023  0  3.931042  0
C  C123  1  0.73562620  0.29212135  0.97151254  1  0.418928  0  0.051116  0.110053  0  3.931316  0
C  C124  1  0.13005233  0.77073037  0.03371010  1  -0.000633  0  -0.0807  -0.171794  0  3.90748  0
C  C125  1  0.86994387  0.22926790  0.96629502  1  -0.000963  0  -0.080688  -0.171823  0  3.907449  0
C  C126  1  0.14048165  0.88347266  0.02054438  1  -0.098133  0  0.017697  0.180581  0  3.922744  0
C  C127  1  0.85951923  0.11652321  0.97946103  1  -0.098113  0  0.017675  0.180568  0  3.922637  0
C  C128  1  0.28856035  0.92831280  0.99952782  1  0.034896  0  -0.090059  -0.197021  0  3.951365  0
C  C129  1  0.71144281  0.07168309  0.00047889  1  0.035103  0  -0.09004  -0.197063  0  3.951216  0
C  C130  1  0.41711988  0.86057554  0.99539111  1  0.453575  0  0.040725  0.092368  0  3.975575  0
C  C131  1  0.58287871  0.13941951  0.00461458  1  0.453301  0  0.040761  0.092498  0  3.975653  0
C  C132  1  0.99842076  0.95397358  0.03003967  1  -0.014148  0  -0.156876  -0.201362  0  3.930208  0
C  C133  1  0.00157996  0.04602634  0.96996742  1  -0.040247  0  -0.156937  -0.201554  0  3.930224  0
S  S134  1  0.70648007  0.23110050  0.41435327  1  0.176533  0  0.045876  0.066656  0  2.810001  0
S  S135  1  0.29350091  0.76890493  0.58565109  1  0.176197  0  0.045813  0.066575  0  2.809988  0
S  S136  1  0.71463852  0.99277769  0.43552109  1  0.193076  0  0.053921  0.077854  0  2.8592  0
S  S137  1  0.28534724  0.00722697  0.56447736  1  0.192977  0  0.053933  0.077883  0  2.859285  0
S  S138  1  0.82900369  0.99702592  0.58104719  1  0.1892  0  0.057326  0.085449  0  2.866034  0
S  S139  1  0.17096123  0.00297534  0.41895897  1  0.189125  0  0.057291  0.085409  0  2.866006  0
S  S140  1  0.83356586  0.23479357  0.55638774  1  0.165949  0  0.035865  0.051246  0  2.809479  0
S  S141  1  0.16640368  0.76520530  0.44362124  1  0.166367  0  0.035849  0.051147  0  2.809579  0
N  N142  1  0.40560739  0.75234091  0.01055342  1  -1.203608  0  -0.339341  -0.259797  0  3.556668  0
N  N143  1  0.59438788  0.24765249  0.98944918  1  -1.203727  0  -0.339344  -0.259852  0  3.557006  0
O  O144  1  0.95477607  0.68862370  0.89930415  1  -1.18969  0  -0.317502  -0.56053  0  2.244593  0
O  O145  1  0.04522620  0.31136895  0.10069587  1  -1.18956  0  -0.317538  -0.560449  0  2.244335  0
O  O146  1  0.78202045  0.79857885  0.95766563  1  -1.177882  0  -0.327274  -0.568784  0  2.275234  0
O  O147  1  0.21798182  0.20141218  0.04233654  1  -1.177211  0  -0.327284  -0.568798  0  2.275401  0
O  O148  1  0.93310738  0.56606440  0.80875337  1  -1.18048  0  -0.328507  -0.486823  0  2.333526  0
O  O149  1  0.06691790  0.43393328  0.19124264  1  -1.180326  0  -0.328375  -0.486683  0  2.333641  0
O  O150  1  0.05799574  0.43438587  0.86741532  1  -1.181156  0  -0.291934  -0.524121  0  2.20677  0
O  O151  1  0.94201894  0.56561335  0.13258756  1  -1.181536  0  -0.291965  -0.524151  0  2.206672  0
O  O152  1  0.53066339  0.65552959  0.20827202  1  -1.176203  0  -0.326106  -0.479895  0  2.332708  0
O  O153  1  0.46932688  0.34448158  0.79172245  1  -1.176154  0  -0.325942  -0.479786  0  2.332636  0
O  O154  1  0.64003596  0.76955015  0.11253827  1  -1.158759  0  -0.301537  -0.529535  0  2.226221  0
O  O155  1  0.35996951  0.23045466  0.88745639  1  -1.158514  0  -0.30157  -0.529514  0  2.226528  0
O  O156  1  0.39311659  0.40399044  0.08505139  1  -1.186051  0  -0.32267  -0.566275  0  2.303943  0
O  O157  1  0.60689594  0.59601281  0.91493974  1  -1.186012  0  -0.322591  -0.566277  0  2.30411  0
O  O158  1  0.50483557  0.54395863  0.11524683  1  -1.191031  0  -0.334445  -0.597741  0  2.388219  0
O  O159  1  0.49515595  0.45604769  0.88474996  1  -1.190884  0  -0.334475  -0.597717  0  2.388173  0
O  O160  1  0.84057537  0.55049339  0.01422248  1  -1.259153  0  -0.583889  -0.748669  0  2.093423  0
O  O161  1  0.15942929  0.44949604  0.98577860  1  -1.259052  0  -0.583957  -0.748753  0  2.093361  0
