# generated using pymatgen
data_AlH6C10BrO5
_symmetry_space_group_name_H-M   'P 1'
_cell_length_a   6.68582388
_cell_length_b   17.30403226
_cell_length_c   19.56516266
_cell_angle_alpha   108.46582351
_cell_angle_beta   89.99871255
_cell_angle_gamma   90.00128653
_symmetry_Int_Tables_number   1
_chemical_formula_structural   AlH6C10BrO5
_chemical_formula_sum   'Al4 H24 C40 Br4 O20'
_cell_volume   2146.98439124
_cell_formula_units_Z   4
loop_
 _symmetry_equiv_pos_site_id
 _symmetry_equiv_pos_as_xyz
  1  'x, y, z'
loop_
 _atom_site_type_symbol
 _atom_site_label
 _atom_site_symmetry_multiplicity
 _atom_site_fract_x
 _atom_site_fract_y
 _atom_site_fract_z
 _atom_site_occupancy
 _atom_site_pbe_bader_charge
 _atom_site_pbe_bader_spin_density
 _atom_site_pbe_cm5_charge
 _atom_site_pbe_ddec_charge
 _atom_site_pbe_ddec_spin_density
 _atom_site_pbe_ddec_sum_bond_order
 _atom_site_pbe_magmom
Al  Al0  1  0.00364014  0.50334259  0.49983853  1  2.50364  0  0.399025  1.642383  0  2.576373  0
Al  Al1  1  0.99636118  0.00334094  0.99983654  1  2.503736  0  0.398997  1.642553  0  2.576252  0
Al  Al2  1  0.50241932  0.50237007  0.49982322  1  2.50015  0  0.396197  1.645944  0  2.573331  0
Al  Al3  1  0.49758343  0.00236442  0.99981787  1  2.50048  0  0.396242  1.645994  0  2.573211  0
H  H4  1  0.85667620  0.37700535  0.80067406  1  0.086577  0  0.106169  0.109812  0  0.992596  0
H  H5  1  0.14323413  0.87701133  0.30067037  1  0.086185  0  0.106163  0.109777  0  0.99248  0
H  H6  1  0.87009042  0.46093291  0.71869405  1  0.065257  0  0.11178  0.1146  0  0.976526  0
H  H7  1  0.12980200  0.96092445  0.21867744  1  0.065713  0  0.111754  0.114584  0  0.976758  0
H  H8  1  0.64982590  0.17245260  0.62425549  1  0.097921  0  0.09759  0.114095  0  1.022538  0
H  H9  1  0.35022512  0.67246213  0.12426720  1  0.097947  0  0.097578  0.114059  0  1.022706  0
H  H10  1  0.44560412  0.09156848  0.82834394  1  0.100657  0  0.113928  0.132887  0  0.98962  0
H  H11  1  0.55443768  0.59159930  0.32835400  1  0.101112  0  0.113988  0.132901  0  0.989523  0
H  H12  1  0.04090659  0.17658594  0.89412896  1  0.108631  0  0.112137  0.121148  0  0.983583  0
H  H13  1  0.95910636  0.67657552  0.39412918  1  0.108608  0  0.112156  0.12115  0  0.98368  0
H  H14  1  0.03158765  0.25988584  0.81118324  1  0.090221  0  0.095982  0.096586  0  1.031664  0
H  H15  1  0.96840144  0.75987891  0.31118826  1  0.090294  0  0.095941  0.096491  0  1.031758  0
H  H16  1  0.05581775  0.30743104  0.30862108  1  0.10227  0  0.114564  0.114312  0  0.975232  0
H  H17  1  0.94416400  0.80744814  0.80861811  1  0.102224  0  0.114583  0.114329  0  0.975088  0
H  H18  1  0.59509471  0.30414608  0.30186028  1  0.092603  0  0.111474  0.127855  0  0.987896  0
H  H19  1  0.40489924  0.80414097  0.80185567  1  0.092683  0  0.111438  0.127698  0  0.987843  0
H  H20  1  0.05203830  0.19494157  0.19390612  1  0.102689  0  0.10955  0.104266  0  0.985239  0
H  H21  1  0.94794981  0.69495890  0.69390205  1  0.102359  0  0.109568  0.104257  0  0.985525  0
H  H22  1  0.59176390  0.20344853  0.20064437  1  0.073746  0  0.10936  0.124933  0  0.992908  0
H  H23  1  0.40821383  0.70344295  0.70064994  1  0.073896  0  0.109368  0.125  0  0.993018  0
H  H24  1  0.25164805  0.40799648  0.51326014  1  0.602002  0  0.35126  0.431385  0  0.854462  0
H  H25  1  0.74834853  0.90799013  0.01325365  1  0.601772  0  0.351268  0.43139  0  0.854467  0
H  H26  1  0.75137184  0.60710075  0.54251513  1  0.604235  0  0.350854  0.42631  0  0.860741  0
H  H27  1  0.24863700  0.10709424  0.04251591  1  0.604319  0  0.350913  0.426417  0  0.860656  0
C  C28  1  0.25063733  0.61747557  0.61162629  1  1.548249  0  0.256409  0.67702  0  4.118169  0
C  C29  1  0.74935723  0.11747217  0.11162450  1  1.548613  0  0.256362  0.676891  0  4.118277  0
C  C30  1  0.25599407  0.58115967  0.41757050  1  1.573535  0  0.270554  0.641237  0  4.100123  0
C  C31  1  0.74400843  0.08115463  0.91756952  1  1.57382  0  0.270477  0.641012  0  4.100636  0
C  C32  1  0.75527527  0.39011576  0.38971420  1  1.562426  0  0.259481  0.671406  0  4.128332  0
C  C33  1  0.24473035  0.89011572  0.88970955  1  1.562898  0  0.259589  0.671651  0  4.128087  0
C  C34  1  0.75239982  0.41955626  0.57965833  1  1.584221  0  0.265037  0.653326  0  4.116748  0
C  C35  1  0.24759770  0.91954673  0.07964259  1  1.584464  0  0.265269  0.653607  0  4.116605  0
C  C36  1  0.81263773  0.35051125  0.74440083  1  -0.086667  0  -0.089119  -0.133543  0  3.982714  0
C  C37  1  0.18730448  0.85051381  0.24439792  1  -0.085774  0  -0.089023  -0.133564  0  3.982435  0
C  C38  1  0.81833482  0.39795689  0.69873302  1  0.041346  0  -0.081054  -0.081553  0  3.985741  0
C  C39  1  0.18158936  0.89795445  0.19872419  1  0.092655  0  -0.081046  -0.081387  0  3.98572  0
C  C40  1  0.75462971  0.36632632  0.62707094  1  0.015312  0  -0.013779  -0.072847  0  3.957738  0
C  C41  1  0.24535993  0.86632421  0.12706655  1  -0.036804  0  -0.013851  -0.073037  0  3.957827  0
C  C42  1  0.69391146  0.28482566  0.60171587  1  -0.134392  0  -0.012381  0.098605  0  3.954656  0
C  C43  1  0.30613456  0.78482904  0.10171921  1  -0.134127  0  -0.012328  0.098613  0  3.954607  0
C  C44  1  0.69283160  0.23613801  0.64626517  1  0.056345  0  -0.100654  -0.1886  0  3.992347  0
C  C45  1  0.30718757  0.73614330  0.14627066  1  0.055787  0  -0.100579  -0.188462  0  3.992408  0
C  C46  1  0.74708538  0.26920852  0.71907478  1  0.00843  0  -0.009141  0.086333  0  4.007537  0
C  C47  1  0.25290275  0.76921621  0.21908009  1  0.008604  0  -0.009175  0.086356  0  4.007478  0
C  C48  1  0.57675597  0.17025963  0.77389619  1  -0.08942  0  -0.01337  0.065349  0  3.925113  0
C  C49  1  0.42326583  0.67027926  0.27390699  1  -0.089288  0  -0.013394  0.065512  0  3.92486  0
C  C50  1  0.57573895  0.12709616  0.82303413  1  0.021554  0  -0.088074  -0.148694  0  3.969653  0
C  C51  1  0.42428895  0.62711716  0.32304386  1  0.021929  0  -0.088177  -0.148789  0  3.969667  0
C  C52  1  0.74381713  0.12901621  0.86619388  1  0.003467  0  -0.013304  -0.027455  0  3.980594  0
C  C53  1  0.25621260  0.62902929  0.36620299  1  0.002246  0  -0.013104  -0.02737  0  3.980355  0
C  C54  1  0.90920452  0.17651488  0.86129101  1  -0.048313  0  -0.08249  -0.092325  0  3.98404  0
C  C55  1  0.09080605  0.67651489  0.36129459  1  -0.048504  0  -0.082574  -0.092355  0  3.984284  0
C  C56  1  0.90330393  0.22253072  0.81463915  1  -0.052455  0  -0.091236  -0.123961  0  4.00521  0
C  C57  1  0.09669458  0.72253131  0.31464593  1  -0.051845  0  -0.091125  -0.123702  0  4.005378  0
C  C58  1  0.73969497  0.21984161  0.76853082  1  0.010532  0  -0.006872  0.028705  0  3.966843  0
C  C59  1  0.26030633  0.71985451  0.26854096  1  0.010189  0  -0.006944  0.028401  0  3.966846  0
C  C60  1  0.91007305  0.28532282  0.28510115  1  -0.111525  0  -0.066861  -0.025368  0  3.974163  0
C  C61  1  0.08992679  0.78533420  0.78510132  1  -0.112125  0  -0.066928  -0.025552  0  3.974602  0
C  C62  1  0.74633106  0.32239376  0.32124835  1  0.034021  0  -0.081091  -0.224318  0  3.874953  0
C  C63  1  0.25364333  0.82239380  0.82124042  1  0.034196  0  -0.081086  -0.224085  0  3.875472  0
C  C64  1  0.90752896  0.21873668  0.21754714  1  -0.034078  0  -0.06706  -0.019821  0  3.979357  0
C  C65  1  0.09243817  0.71874750  0.71754729  1  -0.034062  0  -0.067057  -0.019807  0  3.978966  0
C  C66  1  0.74207599  0.18388003  0.18100024  1  -0.040079  0  -0.085181  -0.230587  0  3.874033  0
C  C67  1  0.25792572  0.68388040  0.68099981  1  -0.039683  0  -0.085193  -0.230645  0  3.87378  0
Br  Br68  1  0.61501187  0.23727038  0.50351292  1  -0.074483  0  0.015461  -0.072778  0  1.341299  0
Br  Br69  1  0.38515418  0.73727724  0.00352278  1  -0.074537  0  0.015364  -0.072823  0  1.341139  0
Br  Br70  1  0.34082702  0.16182092  0.71665089  1  -0.07392  0  0.040524  -0.060221  0  1.467546  0
Br  Br71  1  0.65919645  0.66184988  0.21665652  1  -0.07379  0  0.040532  -0.060222  0  1.467524  0
O  O72  1  0.42496527  0.55859316  0.43435838  1  -1.25143  0  -0.231359  -0.578609  0  2.342764  0
O  O73  1  0.57505867  0.05857722  0.93434493  1  -1.251739  0  -0.231103  -0.578341  0  2.343602  0
O  O74  1  0.07985506  0.59017143  0.58591679  1  -1.263108  0  -0.242275  -0.60989  0  2.332298  0
O  O75  1  0.92015141  0.09015406  0.08592242  1  -1.263021  0  -0.242397  -0.609988  0  2.33213  0
O  O76  1  0.92195380  0.43808901  0.56002401  1  -1.248083  0  -0.232353  -0.588601  0  2.325322  0
O  O77  1  0.07802968  0.93807024  0.06000388  1  -1.248097  0  -0.232402  -0.588702  0  2.324879  0
O  O78  1  0.08707577  0.56740084  0.44140377  1  -1.255779  0  -0.231576  -0.584803  0  2.343026  0
O  O79  1  0.91293929  0.06740689  0.94141418  1  -1.256003  0  -0.231703  -0.584867  0  2.342647  0
O  O80  1  0.92527384  0.41858014  0.41485811  1  -1.255292  0  -0.235208  -0.589893  0  2.323411  0
O  O81  1  0.07471249  0.91859422  0.91484980  1  -1.255677  0  -0.235171  -0.590012  0  2.323115  0
O  O82  1  0.42055075  0.59313695  0.58242607  1  -1.257139  0  -0.244418  -0.609069  0  2.295234  0
O  O83  1  0.57946361  0.09314342  0.08242166  1  -1.257786  0  -0.244294  -0.608886  0  2.295636  0
O  O84  1  0.25261181  0.45416290  0.49523907  1  -1.40418  0  -0.447775  -0.988784  0  2.186688  0
O  O85  1  0.74738951  0.95416166  0.99523772  1  -1.404051  0  -0.447781  -0.988816  0  2.186639  0
O  O86  1  0.58596762  0.41457821  0.41861666  1  -1.257248  0  -0.236881  -0.59436  0  2.330943  0
O  O87  1  0.41401074  0.91456788  0.91861839  1  -1.257273  0  -0.236908  -0.594433  0  2.331227  0
O  O88  1  0.58176534  0.44144406  0.56394340  1  -1.243761  0  -0.235343  -0.595819  0  2.341136  0
O  O89  1  0.41821810  0.94144770  0.06394657  1  -1.243998  0  -0.235466  -0.595989  0  2.341547  0
O  O90  1  0.75241819  0.55208083  0.50912857  1  -1.40852  0  -0.448589  -0.986628  0  2.192865  0
O  O91  1  0.24759086  0.05207800  0.00912831  1  -1.408712  0  -0.448632  -0.986775  0  2.192809  0
