# generated using pymatgen
data_AgH5(CO)7
_symmetry_space_group_name_H-M   'P 1'
_cell_length_a   3.56015008
_cell_length_b   14.92913492
_cell_length_c   15.70270543
_cell_angle_alpha   106.20353470
_cell_angle_beta   90.00035951
_cell_angle_gamma   89.99943687
_symmetry_Int_Tables_number   1
_chemical_formula_structural   AgH5(CO)7
_chemical_formula_sum   'Ag4 H20 C28 O28'
_cell_volume   801.44499475
_cell_formula_units_Z   4
loop_
 _symmetry_equiv_pos_site_id
 _symmetry_equiv_pos_as_xyz
  1  'x, y, z'
loop_
 _atom_site_type_symbol
 _atom_site_label
 _atom_site_symmetry_multiplicity
 _atom_site_fract_x
 _atom_site_fract_y
 _atom_site_fract_z
 _atom_site_occupancy
 _atom_site_hle17_bader_spin_density
 _atom_site_hle17_ddec_charge
 _atom_site_hle17_ddec_spin_density
 _atom_site_hle17_ddec_sum_bond_order
 _atom_site_hle17_magmom
 _atom_site_hse06_10hf_bader_charge
 _atom_site_hse06_10hf_bader_spin_density
 _atom_site_hse06_10hf_ddec_charge
 _atom_site_hse06_10hf_ddec_spin_density
 _atom_site_hse06_10hf_ddec_sum_bond_order
 _atom_site_hse06_10hf_magmom
 _atom_site_hse06_bader_spin_density
 _atom_site_hse06_ddec_charge
 _atom_site_hse06_ddec_spin_density
 _atom_site_hse06_ddec_sum_bond_order
 _atom_site_hse06_magmom
 _atom_site_pbe_bader_spin_density
 _atom_site_pbe_cm5_charge
 _atom_site_pbe_ddec_charge
 _atom_site_pbe_ddec_spin_density
 _atom_site_pbe_ddec_sum_bond_order
 _atom_site_pbe_magmom
Ag  Ag0  1  0.00088609  0.40070859  0.95570584  1  0  0.670765  0  1.260268  0  0.699886  0  0.565356  0  1.69144  0  0  0.597293  0  1.630065  0  0  0.429104  0.543477  0  1.73421  0
Ag  Ag1  1  0.50088188  0.09928921  0.04429242  1  0  0.670739  0  1.260317  0  0.698869  0  0.565342  0  1.691479  0  0  0.597286  0  1.630107  0  0  0.42911  0.543462  0  1.734247  0
Ag  Ag2  1  0.99911164  0.59929110  0.04429368  1  0  0.670741  0  1.260307  0  0.698827  0  0.565339  0  1.69148  0  0  0.597282  0  1.630109  0  0  0.429103  0.543454  0  1.734256  0
Ag  Ag3  1  0.49913552  0.90070771  0.95570832  1  0  0.670773  0  1.260292  0  0.699958  0  0.565394  0  1.691431  0  0  0.597333  0  1.630052  0  0  0.429108  0.54351  0  1.734202  0
H  H4  1  0.43080386  0.81562551  0.58425714  1  0  0.406265  0  0.875785  0  0.671453  0  0.369953  0  0.960228  0  0  0.384272  0  0.945247  0  0  0.303965  0.359914  0  0.970642  0
H  H5  1  0.93079737  0.68437829  0.41574346  1  0  0.406092  0  0.876036  0  0.671611  0  0.369801  0  0.960439  0  0  0.384128  0  0.945451  0  0  0.303892  0.359765  0  0.970852  0
H  H6  1  0.56920511  0.18437558  0.41574273  1  0  0.406177  0  0.875899  0  0.67148  0  0.36993  0  0.960241  0  0  0.384254  0  0.945258  0  0  0.303954  0.359895  0  0.970656  0
H  H7  1  0.06919755  0.31562492  0.58425950  1  0  0.406123  0  0.875905  0  0.671602  0  0.369798  0  0.960369  0  0  0.38412  0  0.945388  0  0  0.303901  0.35976  0  0.970784  0
H  H8  1  0.58459813  0.28534442  0.82398390  1  0  0.415251  0  0.885433  0  0.657154  0  0.38199  0  0.957209  0  0  0.392066  0  0.942244  0  0  0.285658  0.374938  0  0.967676  0
H  H9  1  0.08460098  0.21465256  0.17601682  1  0  0.415273  0  0.885371  0  0.657151  0  0.382004  0  0.957176  0  0  0.392083  0  0.942205  0  0  0.285687  0.374954  0  0.96764  0
H  H10  1  0.41539960  0.71465461  0.17601800  1  0  0.415276  0  0.885361  0  0.657138  0  0.382004  0  0.957184  0  0  0.392085  0  0.94221  0  0  0.285678  0.374952  0  0.96765  0
H  H11  1  0.91540518  0.78534576  0.82398363  1  0  0.415281  0  0.885351  0  0.657109  0  0.381996  0  0.957194  0  0  0.392071  0  0.94223  0  0  0.285675  0.374947  0  0.967658  0
H  H12  1  0.55213255  0.22430548  0.89110755  1  0  0.428051  0  0.872487  0  0.669481  0  0.396212  0  0.936912  0  0  0.407206  0  0.920903  0  0  0.28623  0.388522  0  0.948078  0
H  H13  1  0.05212548  0.27569153  0.10889122  1  0  0.428051  0  0.872505  0  0.669503  0  0.396185  0  0.936975  0  0  0.407179  0  0.920965  0  0  0.286196  0.388492  0  0.948144  0
H  H14  1  0.44786518  0.77569282  0.10889225  1  0  0.428023  0  0.872539  0  0.669663  0  0.396178  0  0.936978  0  0  0.407173  0  0.920968  0  0  0.286197  0.388484  0  0.948147  0
H  H15  1  0.94787226  0.72430677  0.89110859  1  0  0.428054  0  0.872503  0  0.669489  0  0.396199  0  0.936954  0  0  0.407192  0  0.920946  0  0  0.286218  0.388505  0  0.948123  0
H  H16  1  0.19784906  0.57756242  0.54584152  1  0  0.167776  0  0.956458  0  0.222128  0  0.167573  0  1.02559  0  0  0.173578  0  1.02168  0  0  0.119867  0.163315  0  1.028503  0
H  H17  1  0.69784204  0.92243833  0.45415606  1  0  0.167746  0  0.956467  0  0.22214  0  0.167587  0  1.025571  0  0  0.17359  0  1.021662  0  0  0.11987  0.163329  0  1.02849  0
H  H18  1  0.80215991  0.42243935  0.45415789  1  0  0.167727  0  0.956452  0  0.222105  0  0.16758  0  1.025546  0  0  0.173582  0  1.021637  0  0  0.119871  0.163322  0  1.028461  0
H  H19  1  0.30215569  0.07756348  0.54584591  1  0  0.167744  0  0.956526  0  0.222165  0  0.167527  0  1.025711  0  0  0.173532  0  1.021806  0  0  0.119846  0.16327  0  1.028629  0
H  H20  1  0.31713087  0.41124823  0.73407878  1  0  0.172225  0  0.935862  0  0.186805  0  0.176572  0  0.997444  0  0  0.181943  0  0.994395  0  0  0.124307  0.17271  0  0.999849  0
H  H21  1  0.81713290  0.08875174  0.26592176  1  0  0.172192  0  0.935909  0  0.186766  0  0.176528  0  0.99752  0  0  0.181895  0  0.994475  0  0  0.124316  0.172685  0  0.999883  0
H  H22  1  0.68285843  0.58875216  0.26592091  1  0  0.172223  0  0.935861  0  0.186788  0  0.176561  0  0.997475  0  0  0.181927  0  0.994435  0  0  0.124291  0.172709  0  0.999845  0
H  H23  1  0.18287045  0.91124515  0.73407641  1  0  0.172243  0  0.935819  0  0.186688  0  0.17657  0  0.99744  0  0  0.181936  0  0.994393  0  0  0.124328  0.172712  0  0.999834  0
C  C24  1  0.53887224  0.73359574  0.66044162  1  0  0.616353  0  3.859437  0  1.678785  0  0.555763  0  4.173203  0  0  0.587953  0  4.163869  0  0  0.233539  0.534006  0  4.179051  0
C  C25  1  0.03884912  0.76640821  0.33956227  1  0  0.616396  0  3.859167  0  1.678625  0  0.555946  0  4.172738  0  0  0.588143  0  4.163397  0  0  0.233568  0.534167  0  4.178587  0
C  C26  1  0.46115077  0.26640324  0.33955709  1  0  0.616552  0  3.8593  0  1.678866  0  0.556052  0  4.172961  0  0  0.588245  0  4.163619  0  0  0.233626  0.534298  0  4.178817  0
C  C27  1  0.96115704  0.23358795  0.66043317  1  0  0.616458  0  3.85945  0  1.678462  0  0.556042  0  4.172863  0  0  0.588235  0  4.163531  0  0  0.233543  0.534257  0  4.17873  0
C  C28  1  0.45747331  0.63818627  0.67027799  1  0  0.166896  0  3.670236  0  0.369015  0  0.151184  0  3.941921  0  0  0.160606  0  3.953838  0  0  0.104438  0.144649  0  3.93432  0
C  C29  1  0.95747399  0.86181465  0.32971937  1  0  0.166809  0  3.670237  0  0.368895  0  0.151017  0  3.942031  0  0  0.160433  0  3.953951  0  0  0.104424  0.144558  0  3.934336  0
C  C30  1  0.54253566  0.36181343  0.32972216  1  0  0.166758  0  3.670217  0  0.36906  0  0.151082  0  3.941889  0  0  0.160506  0  3.953803  0  0  0.104451  0.144539  0  3.934307  0
C  C31  1  0.04252374  0.13818785  0.67028213  1  0  0.166779  0  3.670426  0  0.368775  0  0.151124  0  3.942003  0  0  0.160551  0  3.953914  0  0  0.104465  0.144637  0  3.934357  0
C  C32  1  0.28820304  0.56709164  0.60884340  1  0  -0.250472  0  3.613102  0  0.060859  0  -0.284603  0  3.878968  0  0  -0.29614  0  3.893712  0  0  -0.090558  -0.277144  0  3.869322  0
C  C33  1  0.78819674  0.93291105  0.39115671  1  0  -0.250341  0  3.612894  0  0.060954  0  -0.284581  0  3.878938  0  0  -0.296108  0  3.893669  0  0  -0.090577  -0.277135  0  3.869234  0
C  C34  1  0.71180312  0.43290946  0.39115711  1  0  -0.250362  0  3.61296  0  0.060832  0  -0.284615  0  3.878922  0  0  -0.296149  0  3.893657  0  0  -0.090594  -0.277145  0  3.869249  0
C  C35  1  0.21179538  0.06709145  0.60884479  1  0  -0.250383  0  3.613066  0  0.061053  0  -0.284615  0  3.879016  0  0  -0.296156  0  3.89376  0  0  -0.090564  -0.277166  0  3.869339  0
C  C36  1  0.22935368  0.47836628  0.62714736  1  0  0.464859  0  3.813055  0  0.842653  0  0.443048  0  4.086994  0  0  0.469633  0  4.089293  0  0  0.128772  0.425599  0  4.084614  0
C  C37  1  0.72935289  0.02163384  0.37285118  1  0  0.464874  0  3.812934  0  0.842718  0  0.443094  0  4.086874  0  0  0.469681  0  4.089161  0  0  0.128822  0.425645  0  4.084506  0
C  C38  1  0.77064405  0.52163481  0.37285251  1  0  0.464933  0  3.812941  0  0.842687  0  0.443146  0  4.086887  0  0  0.469739  0  4.089174  0  0  0.12881  0.425697  0  4.084512  0
C  C39  1  0.27063923  0.97836653  0.62714788  1  0  0.464968  0  3.812814  0  0.842646  0  0.443202  0  4.086736  0  0  0.469785  0  4.089042  0  0  0.128853  0.425752  0  4.084362  0
C  C40  1  0.34975712  0.47433524  0.71334739  1  0  -0.259156  0  3.632378  0  0.11078  0  -0.293077  0  3.895763  0  0  -0.305403  0  3.910009  0  0  -0.092565  -0.285365  0  3.886791  0
C  C41  1  0.84976514  0.02566675  0.28665308  1  0  -0.259088  0  3.632281  0  0.110809  0  -0.292999  0  3.895666  0  0  -0.305317  0  3.909904  0  0  -0.092608  -0.285287  0  3.886692  0
C  C42  1  0.65023780  0.52566585  0.28665312  1  0  -0.25925  0  3.632334  0  0.110902  0  -0.293206  0  3.895742  0  0  -0.305535  0  3.909972  0  0  -0.09261  -0.285488  0  3.886782  0
C  C43  1  0.15023540  0.97433224  0.71334563  1  0  -0.259248  0  3.632371  0  0.11091  0  -0.293185  0  3.895794  0  0  -0.305506  0  3.910046  0  0  -0.09264  -0.285476  0  3.886819  0
C  C44  1  0.51842335  0.54912365  0.77061727  1  0  0.195664  0  3.636095  0  0.371972  0  0.182491  0  3.903196  0  0  0.193553  0  3.913047  0  0  0.108449  0.174776  0  3.897026  0
C  C45  1  0.01841209  0.95087605  0.22937851  1  0  0.195617  0  3.635802  0  0.371876  0  0.182428  0  3.902928  0  0  0.193486  0  3.912791  0  0  0.108553  0.174713  0  3.896768  0
C  C46  1  0.48156876  0.45087745  0.22938388  1  0  0.195714  0  3.636023  0  0.371855  0  0.18258  0  3.903094  0  0  0.193653  0  3.91293  0  0  0.108506  0.174859  0  3.89693  0
C  C47  1  0.98157721  0.04912221  0.77061874  1  0  0.195702  0  3.635947  0  0.371877  0  0.18255  0  3.903065  0  0  0.193603  0  3.912938  0  0  0.108586  0.174839  0  3.8969  0
C  C48  1  0.66702784  0.54737698  0.85992966  1  0  0.59802  0  3.972809  0  1.698838  0  0.537108  0  4.275121  0  0  0.570996  0  4.26976  0  0  0.20103  0.514096  0  4.278005  0
C  C49  1  0.16699732  0.95262871  0.14006849  1  0  0.598247  0  3.972447  0  1.698814  0  0.537321  0  4.274825  0  0  0.571203  0  4.26946  0  0  0.201124  0.514307  0  4.277715  0
C  C50  1  0.33296427  0.45262343  0.14007132  1  0  0.598162  0  3.972705  0  1.698798  0  0.537206  0  4.275078  0  0  0.57109  0  4.2697  0  0  0.201022  0.514195  0  4.277965  0
C  C51  1  0.83300322  0.04737096  0.85992975  1  0  0.59839  0  3.972155  0  1.698912  0  0.53738  0  4.274646  0  0  0.571266  0  4.269283  0  0  0.201168  0.514366  0  4.277539  0
O  O52  1  0.71750751  0.79144153  0.71783966  1  0  -0.536159  0  1.999228  0  -1.164506  0  -0.487784  0  2.227372  0  0  -0.507455  0  2.218343  0  0  -0.26992  -0.474477  0  2.23352  0
O  O53  1  0.21750778  0.70855572  0.28215898  1  0  -0.536339  0  1.998801  0  -1.164231  0  -0.488007  0  2.226888  0  0  -0.507682  0  2.217861  0  0  -0.270009  -0.474699  0  2.233037  0
O  O54  1  0.28250427  0.20855958  0.28216213  1  0  -0.536296  0  1.999247  0  -1.164519  0  -0.487968  0  2.227383  0  0  -0.507639  0  2.218351  0  0  -0.269977  -0.474667  0  2.233533  0
O  O55  1  0.78248715  0.29144545  0.71784665  1  0  -0.536346  0  1.998352  0  -1.164061  0  -0.488155  0  2.226508  0  0  -0.507826  0  2.217477  0  0  -0.270066  -0.474825  0  2.232648  0
O  O56  1  0.40092459  0.74612679  0.58733336  1  0  -0.507779  0  2.112208  0  -1.182555  0  -0.45277  0  2.336097  0  0  -0.475854  0  2.323073  0  0  -0.305905  -0.436668  0  2.344415  0
O  O57  1  0.90091792  0.75387637  0.41266704  1  0  -0.50753  0  2.112495  0  -1.182669  0  -0.452576  0  2.336311  0  0  -0.475671  0  2.323298  0  0  -0.305783  -0.436475  0  2.344621  0
O  O58  1  0.59908718  0.25387500  0.41266733  1  0  -0.50768  0  2.112095  0  -1.182633  0  -0.452797  0  2.33598  0  0  -0.475887  0  2.322955  0  0  -0.305903  -0.436695  0  2.344291  0
O  O59  1  0.09908262  0.24612545  0.58733556  1  0  -0.507543  0  2.112927  0  -1.182682  0  -0.452528  0  2.336679  0  0  -0.475614  0  2.323661  0  0  -0.305712  -0.43642  0  2.34499  0
O  O60  1  0.07756302  0.41017664  0.57059162  1  0  -0.508618  0  1.989296  0  -1.163638  0  -0.450077  0  2.196675  0  0  -0.472662  0  2.190068  0  0  -0.2726  -0.434528  0  2.200601  0
O  O61  1  0.57755523  0.08982590  0.42940858  1  0  -0.508683  0  1.989193  0  -1.163584  0  -0.450123  0  2.196485  0  0  -0.472715  0  2.18989  0  0  -0.27263  -0.43458  0  2.200422  0
O  O62  1  0.92243472  0.58982516  0.42940970  1  0  -0.508682  0  1.989256  0  -1.16367  0  -0.450101  0  2.196575  0  0  -0.472698  0  2.189963  0  0  -0.2726  -0.434562  0  2.200507  0
O  O63  1  0.42245374  0.91017585  0.57058955  1  0  -0.508738  0  1.989086  0  -1.16356  0  -0.450165  0  2.196411  0  0  -0.472756  0  2.189802  0  0  -0.272651  -0.434624  0  2.200344  0
O  O64  1  0.57555942  0.63044424  0.75012969  1  0  -0.188541  0  2.518402  0  -1.112161  0  -0.115436  0  2.736164  0  0  -0.13449  0  2.744684  0  0  -0.09114  -0.102879  0  2.730636  0
O  O65  1  0.07555210  0.86955536  0.24986678  1  0  -0.188491  0  2.518376  0  -1.112069  0  -0.115342  0  2.736165  0  0  -0.134396  0  2.744695  0  0  -0.091134  -0.102816  0  2.730634  0
O  O66  1  0.42444674  0.36955546  0.24987047  1  0  -0.188528  0  2.51836  0  -1.112163  0  -0.115434  0  2.736115  0  0  -0.134485  0  2.744632  0  0  -0.09116  -0.102871  0  2.730597  0
O  O67  1  0.92443720  0.13044293  0.75013175  1  0  -0.188527  0  2.518587  0  -1.11206  0  -0.11543  0  2.736316  0  0  -0.134474  0  2.744838  0  0  -0.091157  -0.102889  0  2.730785  0
O  O68  1  0.60052123  0.47272645  0.87987243  1  0  -0.62064  0  2.171216  0  -1.150784  0  -0.552628  0  2.460876  0  0  -0.583113  0  2.448006  0  0  -0.307747  -0.531455  0  2.469004  0
O  O69  1  0.10051081  0.02727393  0.12012535  1  0  -0.620607  0  2.171308  0  -1.151015  0  -0.552596  0  2.461026  0  0  -0.583101  0  2.448216  0  0  -0.307727  -0.53143  0  2.469159  0
O  O70  1  0.39946246  0.52727325  0.12012773  1  0  -0.62068  0  2.171118  0  -1.150776  0  -0.552675  0  2.460848  0  0  -0.583192  0  2.448058  0  0  -0.307757  -0.531504  0  2.468979  0
O  O71  1  0.89949535  0.97272433  0.87987126  1  0  -0.620663  0  2.171327  0  -1.151036  0  -0.552599  0  2.460998  0  0  -0.583064  0  2.448095  0  0  -0.307727  -0.531425  0  2.469129  0
O  O72  1  0.85108382  0.61733915  0.90547702  1  0  -0.593785  0  2.093444  0  -1.178096  0  -0.521132  0  2.34287  0  0  -0.550025  0  2.330644  0  0  -0.299252  -0.501248  0  2.350816  0
O  O73  1  0.35107751  0.88266272  0.09452298  1  0  -0.593993  0  2.093046  0  -1.17798  0  -0.521396  0  2.34257  0  0  -0.550279  0  2.330314  0  0  -0.29941  -0.501509  0  2.350518  0
O  O74  1  0.14890830  0.38266056  0.09452377  1  0  -0.593844  0  2.093351  0  -1.178082  0  -0.521166  0  2.342803  0  0  -0.55005  0  2.330557  0  0  -0.299229  -0.501284  0  2.350747  0
O  O75  1  0.64892584  0.11733558  0.90547619  1  0  -0.594061  0  2.092934  0  -1.178003  0  -0.5214  0  2.342431  0  0  -0.550305  0  2.330217  0  0  -0.299421  -0.501515  0  2.35038  0
O  O76  1  0.49956594  0.28729474  0.88424193  1  0  -0.836976  0  1.939934  0  -1.287595  0  -0.769701  0  2.165289  0  0  -0.793906  0  2.12735  0  0  -0.595705  -0.752203  0  2.191351  0
O  O77  1  0.99956447  0.21270275  0.11575699  1  0  -0.83698  0  1.939915  0  -1.287666  0  -0.769685  0  2.165314  0  0  -0.793897  0  2.127383  0  0  -0.595691  -0.752187  0  2.191376  0
O  O78  1  0.50043179  0.71270426  0.11575806  1  0  -0.836959  0  1.939905  0  -1.287824  0  -0.769681  0  2.165275  0  0  -0.79389  0  2.127332  0  0  -0.59569  -0.752182  0  2.19134  0
O  O79  1  0.00044169  0.78729556  0.88424346  1  0  -0.836994  0  1.939878  0  -1.287569  0  -0.769711  0  2.165286  0  0  -0.793926  0  2.127364  0  0  -0.595701  -0.752213  0  2.191348  0
