# generated using pymatgen
data_CdH8(C7O2)2
_symmetry_space_group_name_H-M   'P 1'
_cell_length_a   8.74632090
_cell_length_b   24.62374974
_cell_length_c   46.56855972
_cell_angle_alpha   89.99984177
_cell_angle_beta   90.00026086
_cell_angle_gamma   90.00016664
_symmetry_Int_Tables_number   1
_chemical_formula_structural   CdH8(C7O2)2
_chemical_formula_sum   'Cd12 H96 C168 O48'
_cell_volume   10029.34110481
_cell_formula_units_Z   12
loop_
 _symmetry_equiv_pos_site_id
 _symmetry_equiv_pos_as_xyz
  1  'x, y, z'
loop_
 _atom_site_type_symbol
 _atom_site_label
 _atom_site_symmetry_multiplicity
 _atom_site_fract_x
 _atom_site_fract_y
 _atom_site_fract_z
 _atom_site_occupancy
 _atom_site_pbe_bader_charge
 _atom_site_pbe_bader_spin_density
 _atom_site_pbe_cm5_charge
 _atom_site_pbe_ddec_charge
 _atom_site_pbe_ddec_spin_density
 _atom_site_pbe_ddec_sum_bond_order
 _atom_site_pbe_magmom
Cd  Cd0  1  0.91242582  0.53773033  0.84912053  1  1.342281  0  0.792691  1.050347  0  2.136163  0
Cd  Cd1  1  0.41241836  0.96226950  0.65088067  1  1.342528  0  0.792727  1.050429  0  2.136123  0
Cd  Cd2  1  0.58757692  0.46226440  0.84911937  1  1.342398  0  0.792753  1.050547  0  2.136043  0
Cd  Cd3  1  0.08756941  0.03773306  0.65088250  1  1.342365  0  0.792738  1.05045  0  2.136091  0
Cd  Cd4  1  0.08758569  0.46226881  0.15088068  1  1.342521  0  0.79271  1.050472  0  2.136098  0
Cd  Cd5  1  0.58759429  0.03773329  0.34911710  1  1.342451  0  0.792677  1.050354  0  2.136106  0
Cd  Cd6  1  0.41242087  0.53773433  0.15088141  1  1.342372  0  0.792748  1.050434  0  2.136113  0
Cd  Cd7  1  0.91241810  0.96226080  0.34911742  1  1.342421  0  0.79264  1.050366  0  2.136162  0
Cd  Cd8  1  0.25001305  0.49999983  0.81750946  1  1.335601  0  0.791972  1.037993  0  2.133118  0
Cd  Cd9  1  0.74999055  0.99999862  0.68249310  1  1.335605  0  0.791985  1.037982  0  2.133148  0
Cd  Cd10  1  0.74999961  0.49999931  0.18249153  1  1.335735  0  0.791971  1.037992  0  2.133165  0
Cd  Cd11  1  0.25000106  0.99999850  0.31751016  1  1.335728  0  0.792022  1.038039  0  2.133065  0
H  H12  1  0.99404605  0.45327761  0.75169631  1  0.079143  0  0.10757  0.111635  0  0.989262  0
H  H13  1  0.96836480  0.37788259  0.71649127  1  0.040862  0  0.103172  0.102679  0  1.000726  0
H  H14  1  0.77170764  0.27744513  0.78272028  1  0.043826  0  0.100338  0.098055  0  1.027957  0
H  H15  1  0.78741097  0.35427454  0.81695749  1  0.102387  0  0.10771  0.112818  0  1.000905  0
H  H16  1  0.05885159  0.29569199  0.70243918  1  0.063846  0  0.101068  0.098625  0  1.007703  0
H  H17  1  0.05874113  0.20978720  0.67432049  1  0.061035  0  0.10649  0.11102  0  0.996018  0
H  H18  1  0.65858682  0.15627767  0.71940056  1  0.102684  0  0.098367  0.100407  0  1.056393  0
H  H19  1  0.65220996  0.24261457  0.74668972  1  0.088217  0  0.096238  0.094451  0  1.05098  0
H  H20  1  0.45431402  0.54845981  0.91295781  1  0.065323  0  0.106803  0.113535  0  0.995112  0
H  H21  1  0.45622861  0.54821804  0.96627383  1  0.068301  0  0.098745  0.097181  0  1.028296  0
H  H22  1  0.16366603  0.41802860  0.00580218  1  0.092804  0  0.103085  0.104173  0  1.000197  0
H  H23  1  0.15936888  0.41909978  0.05929835  1  0.094208  0  0.108056  0.11499  0  0.987862  0
H  H24  1  0.49404782  0.04672311  0.74830333  1  0.079018  0  0.10757  0.111619  0  0.98934  0
H  H25  1  0.46836004  0.12211486  0.78350985  1  0.040791  0  0.103212  0.102721  0  1.000707  0
H  H26  1  0.27170553  0.22255576  0.71728089  1  0.043827  0  0.100326  0.098048  0  1.027948  0
H  H27  1  0.28741427  0.14572597  0.68304283  1  0.10238  0  0.107705  0.112812  0  1.000948  0
H  H28  1  0.55884316  0.20430584  0.79756223  1  0.063826  0  0.101054  0.098611  0  1.007678  0
H  H29  1  0.55873524  0.29021104  0.82568028  1  0.060992  0  0.10646  0.110981  0  0.996052  0
H  H30  1  0.15858838  0.34372149  0.78059858  1  0.10275  0  0.098259  0.100204  0  1.056488  0
H  H31  1  0.15221244  0.25738499  0.75330920  1  0.088103  0  0.096298  0.094601  0  1.051049  0
H  H32  1  0.95431740  0.95154007  0.58704192  1  0.065409  0  0.106858  0.11368  0  0.995085  0
H  H33  1  0.95622499  0.95178144  0.53372590  1  0.068306  0  0.098759  0.097223  0  1.028305  0
H  H34  1  0.66366821  0.08196870  0.49419696  1  0.092919  0  0.10311  0.104198  0  1.000271  0
H  H35  1  0.65937433  0.08089629  0.44070142  1  0.0943  0  0.108055  0.114998  0  0.987834  0
H  H36  1  0.50595892  0.54672210  0.75169582  1  0.079065  0  0.107513  0.111574  0  0.989358  0
H  H37  1  0.53163817  0.62211730  0.71649047  1  0.040835  0  0.103244  0.102784  0  1.000678  0
H  H38  1  0.72829350  0.72255522  0.78272058  1  0.04381  0  0.100346  0.098026  0  1.027895  0
H  H39  1  0.71258871  0.64572239  0.81695767  1  0.102293  0  0.107739  0.112853  0  1.000903  0
H  H40  1  0.44115115  0.70430786  0.70244034  1  0.063891  0  0.101084  0.098595  0  1.007748  0
H  H41  1  0.44125864  0.79021402  0.67432259  1  0.061079  0  0.106469  0.110965  0  0.996147  0
H  H42  1  0.84140594  0.84372465  0.71940335  1  0.102582  0  0.098352  0.100354  0  1.056414  0
H  H43  1  0.84779145  0.75738639  0.74669136  1  0.088109  0  0.09627  0.094536  0  1.051058  0
H  H44  1  0.04567437  0.45153854  0.91295857  1  0.065142  0  0.10684  0.113622  0  0.995106  0
H  H45  1  0.04377021  0.45178247  0.96627479  1  0.068248  0  0.098751  0.097139  0  1.02831  0
H  H46  1  0.33632330  0.58197204  0.00580256  1  0.092816  0  0.103093  0.104102  0  1.000298  0
H  H47  1  0.34060917  0.58090017  0.05929896  1  0.094255  0  0.108096  0.115069  0  0.987778  0
H  H48  1  0.00596403  0.95327732  0.74830675  1  0.078935  0  0.107558  0.111629  0  0.989413  0
H  H49  1  0.03163665  0.87788092  0.78351083  1  0.040746  0  0.103199  0.102671  0  1.000646  0
H  H50  1  0.22829756  0.77744686  0.71728089  1  0.043908  0  0.10036  0.09805  0  1.027987  0
H  H51  1  0.21260401  0.85428089  0.68304507  1  0.102239  0  0.107714  0.112766  0  1.000913  0
H  H52  1  0.94115148  0.79569078  0.79756282  1  0.063842  0  0.101053  0.09865  0  1.007748  0
H  H53  1  0.94126809  0.70978706  0.82568185  1  0.113585  0  0.106473  0.11094  0  0.995974  0
H  H54  1  0.34141282  0.65627877  0.78059993  1  0.102818  0  0.098286  0.100292  0  1.056466  0
H  H55  1  0.34778352  0.74261460  0.75331064  1  0.088227  0  0.09628  0.094556  0  1.050989  0
H  H56  1  0.54568130  0.04846050  0.58704176  1  0.065397  0  0.106865  0.113635  0  0.995084  0
H  H57  1  0.54376671  0.04821454  0.53372574  1  0.068262  0  0.098739  0.097142  0  1.028368  0
H  H58  1  0.83632824  0.91802707  0.49419792  1  0.092777  0  0.103066  0.104138  0  1.000245  0
H  H59  1  0.84061626  0.91909651  0.44070174  1  0.094158  0  0.108068  0.115046  0  0.987781  0
H  H60  1  0.00593574  0.54672600  0.24830533  1  0.078972  0  0.107547  0.111654  0  0.98932  0
H  H61  1  0.03162613  0.62212061  0.28350972  1  0.040669  0  0.103184  0.102676  0  1.000669  0
H  H62  1  0.22829244  0.72255360  0.21727878  1  0.043836  0  0.10037  0.098078  0  1.027886  0
H  H63  1  0.21257424  0.64572135  0.18304221  1  0.102465  0  0.107715  0.112819  0  1.00091  0
H  H64  1  0.94115192  0.70430674  0.29756052  1  0.063861  0  0.101066  0.098606  0  1.007706  0
H  H65  1  0.94125780  0.79021194  0.32567878  1  0.061079  0  0.106474  0.110976  0  0.996039  0
H  H66  1  0.34141326  0.84372147  0.28059872  1  0.102837  0  0.098306  0.100303  0  1.056473  0
H  H67  1  0.34779469  0.75738295  0.25331041  1  0.088133  0  0.09627  0.094561  0  1.050984  0
H  H68  1  0.54568149  0.45153851  0.08704189  1  0.065399  0  0.106844  0.113633  0  0.995096  0
H  H69  1  0.54377033  0.45178394  0.03372631  1  0.068299  0  0.098768  0.097233  0  1.028376  0
H  H70  1  0.83632719  0.58197419  0.99419903  1  0.092719  0  0.103053  0.104137  0  1.000273  0
H  H71  1  0.84061062  0.58090626  0.94070307  1  0.094154  0  0.108083  0.115107  0  0.987734  0
H  H72  1  0.50594197  0.95327521  0.25169702  1  0.078959  0  0.107557  0.11164  0  0.989249  0
H  H73  1  0.53163776  0.87788591  0.21648921  1  0.04072  0  0.103204  0.102728  0  1.000653  0
H  H74  1  0.72829455  0.77744378  0.28271753  1  0.04391  0  0.100322  0.098024  0  1.027951  0
H  H75  1  0.71257324  0.85427114  0.31695687  1  0.102458  0  0.107718  0.112846  0  1.000766  0
H  H76  1  0.44115349  0.79569411  0.20243683  1  0.063811  0  0.10109  0.098668  0  1.007603  0
H  H77  1  0.44126256  0.70978769  0.17431921  1  0.06096  0  0.106479  0.111005  0  0.99597  0
H  H78  1  0.84142314  0.65628171  0.21939855  1  0.10317  0  0.098306  0.10026  0  1.056433  0
H  H79  1  0.84780136  0.74261983  0.24668686  1  0.088049  0  0.096271  0.094599  0  1.050961  0
H  H80  1  0.04567468  0.04846151  0.41295671  1  0.065369  0  0.106837  0.113559  0  0.99505  0
H  H81  1  0.04376938  0.04821933  0.46627315  1  0.068294  0  0.098759  0.097217  0  1.028311  0
H  H82  1  0.33633530  0.91803125  0.50580146  1  0.092819  0  0.103102  0.104152  0  1.000207  0
H  H83  1  0.34062003  0.91910244  0.55929764  1  0.094336  0  0.108075  0.115056  0  0.987839  0
H  H84  1  0.49404916  0.45327582  0.24830453  1  0.078998  0  0.107559  0.111643  0  0.989323  0
H  H85  1  0.46836419  0.37788062  0.28350944  1  0.04083  0  0.103185  0.102649  0  1.000711  0
H  H86  1  0.27170429  0.27744554  0.21727891  1  0.043804  0  0.100374  0.098079  0  1.027913  0
H  H87  1  0.28740908  0.35427756  0.18304224  1  0.102406  0  0.107736  0.112855  0  1.000894  0
H  H88  1  0.55884093  0.29569493  0.29756216  1  0.063833  0  0.10108  0.098644  0  1.007645  0
H  H89  1  0.55873801  0.20978958  0.32568012  1  0.061002  0  0.106471  0.111014  0  0.99604  0
H  H90  1  0.15859529  0.15627571  0.28059742  1  0.102615  0  0.09832  0.100271  0  1.056485  0
H  H91  1  0.15221549  0.24261275  0.25330856  1  0.088122  0  0.096263  0.094485  0  1.050996  0
H  H92  1  0.95431885  0.54846100  0.08704285  1  0.065377  0  0.106846  0.113612  0  0.995052  0
H  H93  1  0.95622758  0.54821870  0.03372684  1  0.068307  0  0.098775  0.097234  0  1.028318  0
H  H94  1  0.66366534  0.41803075  0.99419800  1  0.092852  0  0.103123  0.104177  0  1.000201  0
H  H95  1  0.65936804  0.41910587  0.94070161  1  0.094337  0  0.108075  0.115033  0  0.987942  0
H  H96  1  0.99405663  0.04672426  0.25169403  1  0.078934  0  0.107556  0.111614  0  0.989328  0
H  H97  1  0.96837372  0.12211984  0.21648974  1  0.040696  0  0.103208  0.102697  0  1.000677  0
H  H98  1  0.77170709  0.22255147  0.28272010  1  0.043934  0  0.100375  0.098069  0  1.027942  0
H  H99  1  0.78740865  0.14571865  0.31695614  1  0.10245  0  0.107726  0.11276  0  1.000926  0
H  H100  1  0.05884631  0.20430470  0.20243646  1  0.063842  0  0.101125  0.098732  0  1.007623  0
H  H101  1  0.05874571  0.29021045  0.17431914  1  0.060887  0  0.106455  0.110987  0  0.995975  0
H  H102  1  0.65860784  0.34372565  0.21940085  1  0.102738  0  0.098276  0.100256  0  1.056465  0
H  H103  1  0.65222456  0.25738900  0.24669035  1  0.088301  0  0.096235  0.094541  0  1.05099  0
H  H104  1  0.45431535  0.95153904  0.41295665  1  0.065441  0  0.106817  0.113556  0  0.9951  0
H  H105  1  0.45622537  0.95178338  0.46627331  1  0.068383  0  0.098712  0.097163  0  1.028306  0
H  H106  1  0.16366841  0.08197207  0.50580049  1  0.092666  0  0.103043  0.104076  0  1.000325  0
H  H107  1  0.15937353  0.08090263  0.55929646  1  0.094253  0  0.108069  0.115049  0  0.987825  0
C  C108  1  0.90809630  0.45314949  0.80758505  1  1.504206  0  0.210725  0.602393  0  4.145096  0
C  C109  1  0.89205597  0.40848128  0.78646031  1  0.002017  0  -0.018859  -0.03991  0  3.978738  0
C  C110  1  0.94382142  0.41464291  0.75811867  1  0.025444  0  -0.078605  -0.079065  0  3.973035  0
C  C111  1  0.93042223  0.37211491  0.73859179  1  -0.004069  0  -0.087692  -0.135567  0  3.976087  0
C  C112  1  0.86731216  0.32193403  0.74697900  1  -0.120689  0  0.000355  0.077843  0  3.980877  0
C  C113  1  0.81681697  0.31634218  0.77554139  1  0.010828  0  -0.08591  -0.124934  0  3.964095  0
C  C114  1  0.82702853  0.35898673  0.79492590  1  -0.038593  0  -0.076381  -0.075026  0  3.961238  0
C  C115  1  0.85857778  0.27475564  0.72745792  1  0.009046  0  -0.003893  0.071529  0  3.993193  0
C  C116  1  0.96904564  0.26566535  0.70598319  1  -0.068119  0  -0.093352  -0.144945  0  3.998545  0
C  C117  1  0.97038753  0.21749482  0.69030806  1  0.016534  0  -0.082842  -0.087018  0  3.9884  0
C  C118  1  0.86131528  0.17707645  0.69570846  1  -0.006203  0  -0.018727  -0.035617  0  3.953219  0
C  C119  1  0.74529879  0.18721818  0.71577280  1  -0.049605  0  -0.084002  -0.080379  0  3.971019  0
C  C120  1  0.74357159  0.23539236  0.73124608  1  -0.101499  0  -0.092294  -0.131868  0  3.969689  0
C  C121  1  0.87278029  0.12215066  0.68201129  1  1.535509  0  0.218603  0.608423  0  4.174162  0
C  C122  1  0.36501939  0.52745765  0.92491822  1  0.082039  0  -0.07998  -0.077774  0  3.966999  0
C  C123  1  0.36430173  0.52770246  0.95474113  1  -0.088115  0  -0.088475  -0.129182  0  3.976702  0
C  C124  1  0.20023255  0.45423063  0.01740957  1  -0.07147  0  -0.089503  -0.138094  0  3.980777  0
C  C125  1  0.19909872  0.45434589  0.04727779  1  -0.074079  0  -0.080538  -0.08261  0  3.978668  0
C  C126  1  0.40809786  0.04685317  0.69241430  1  1.503577  0  0.210725  0.602553  0  4.144728  0
C  C127  1  0.39205727  0.09151893  0.71353988  1  0.002004  0  -0.018968  -0.040189  0  3.978668  0
C  C128  1  0.44382107  0.08535694  0.74188178  1  0.025664  0  -0.078519  -0.078974  0  3.972987  0
C  C129  1  0.43041813  0.12788412  0.76140972  1  -0.004039  0  -0.087717  -0.135525  0  3.975878  0
C  C130  1  0.36730484  0.17806656  0.75302224  1  -0.120916  0  0.000327  0.077751  0  3.980687  0
C  C131  1  0.31681471  0.18365836  0.72445981  1  0.010837  0  -0.085947  -0.12497  0  3.964116  0
C  C132  1  0.32702660  0.14101544  0.70507402  1  -0.038654  0  -0.076373  -0.074948  0  3.96108  0
C  C133  1  0.35857474  0.22524453  0.77254353  1  0.00912  0  -0.003824  0.071683  0  3.99307  0
C  C134  1  0.46903748  0.23433251  0.79401793  1  -0.068009  0  -0.093382  -0.14491  0  3.998428  0
C  C135  1  0.47038243  0.28250425  0.80969371  1  0.016886  0  -0.082786  -0.087025  0  3.988303  0
C  C136  1  0.36130924  0.32292251  0.80429127  1  -0.006318  0  -0.018727  -0.035674  0  3.953353  0
C  C137  1  0.24529904  0.31278310  0.78422769  1  -0.049665  0  -0.083868  -0.079909  0  3.970546  0
C  C138  1  0.24356535  0.26460648  0.76875313  1  -0.101439  0  -0.092393  -0.132282  0  3.969648  0
C  C139  1  0.37277960  0.37784790  0.81798825  1  1.53552  0  0.218583  0.608368  0  4.174477  0
C  C140  1  0.86502151  0.97253970  0.57508251  1  0.081769  0  -0.079998  -0.077896  0  3.96703  0
C  C141  1  0.86429856  0.97229489  0.54525917  1  -0.088108  0  -0.088524  -0.129247  0  3.976792  0
C  C142  1  0.70023416  0.04576711  0.48259024  1  -0.071674  0  -0.089535  -0.138123  0  3.980805  0
C  C143  1  0.69910189  0.04565023  0.45272159  1  -0.073988  0  -0.0806  -0.082681  0  3.978685  0
C  C144  1  0.59190773  0.54684830  0.80758463  1  1.504403  0  0.21081  0.602525  0  4.145187  0
C  C145  1  0.60794755  0.59151703  0.78645898  1  0.002117  0  -0.018942  -0.040221  0  3.978725  0
C  C146  1  0.55618370  0.58535473  0.75811731  1  0.025576  0  -0.078475  -0.078863  0  3.973059  0
C  C147  1  0.56958470  0.62788568  0.73859037  1  -0.004384  0  -0.087808  -0.135744  0  3.975979  0
C  C148  1  0.63270069  0.67806651  0.74697886  1  -0.120473  0  0.000372  0.077944  0  3.980806  0
C  C149  1  0.68318515  0.68365538  0.77554149  1  0.010812  0  -0.08602  -0.125031  0  3.964431  0
C  C150  1  0.67297748  0.64101234  0.79492563  1  -0.038591  0  -0.07641  -0.074989  0  3.961436  0
C  C151  1  0.64142432  0.72524622  0.72745836  1  0.009165  0  -0.003882  0.071537  0  3.99309  0
C  C152  1  0.53096051  0.73433460  0.70598438  1  -0.068089  0  -0.093296  -0.144812  0  3.998497  0
C  C153  1  0.52961138  0.78250602  0.69030874  1  0.016535  0  -0.082854  -0.086997  0  3.988324  0
C  C154  1  0.63868833  0.82292558  0.69571069  1  -0.006044  0  -0.018685  -0.035609  0  3.953185  0
C  C155  1  0.75469845  0.81278578  0.71577407  1  -0.049595  0  -0.083963  -0.0802  0  3.970653  0
C  C156  1  0.75643288  0.76460786  0.73124828  1  -0.101474  0  -0.092394  -0.132113  0  3.969517  0
C  C157  1  0.62721271  0.87785063  0.68201406  1  1.535677  0  0.21855  0.60844  0  4.174231  0
C  C158  1  0.13497272  0.47253982  0.92491773  1  0.082006  0  -0.080014  -0.077879  0  3.967088  0
C  C159  1  0.13569338  0.47229567  0.95474107  1  -0.088121  0  -0.088497  -0.129121  0  3.976613  0
C  C160  1  0.29975706  0.54576833  0.01740954  1  -0.071609  0  -0.089478  -0.137993  0  3.980803  0
C  C161  1  0.30088818  0.54565373  0.04727798  1  -0.07387  0  -0.080589  -0.082689  0  3.978512  0
C  C162  1  0.09190120  0.95315364  0.69241822  1  1.504787  0  0.210979  0.602689  0  4.145011  0
C  C163  1  0.10795488  0.90848331  0.71354153  1  0.002073  0  -0.019032  -0.040327  0  3.978814  0
C  C164  1  0.05618148  0.91464596  0.74188466  1  0.025671  0  -0.078456  -0.078899  0  3.973041  0
C  C165  1  0.06957917  0.87211340  0.76141010  1  -0.004079  0  -0.087754  -0.135544  0  3.976118  0
C  C166  1  0.13268883  0.82193344  0.75302317  1  -0.120947  0  0.000421  0.077961  0  3.980692  0
C  C167  1  0.18318741  0.81634422  0.72445994  1  0.010629  0  -0.08595  -0.125012  0  3.964121  0
C  C168  1  0.17298192  0.85899049  0.70507751  1  -0.038142  0  -0.07643  -0.074908  0  3.96151  0
C  C169  1  0.14141826  0.77475496  0.77254346  1  0.009049  0  -0.003835  0.071622  0  3.993147  0
C  C170  1  0.03095946  0.76566444  0.79401864  1  -0.068071  0  -0.093358  -0.145004  0  3.998653  0
C  C171  1  0.02961832  0.71749464  0.80969449  1  -0.035921  0  -0.082807  -0.086904  0  3.988298  0
C  C172  1  0.13869138  0.67707682  0.80429285  1  -0.006752  0  -0.018784  -0.035724  0  3.953244  0
C  C173  1  0.25470224  0.68721714  0.78422850  1  -0.049783  0  -0.083924  -0.080117  0  3.970838  0
C  C174  1  0.25642755  0.73539262  0.76875429  1  -0.101391  0  -0.092342  -0.132134  0  3.969708  0
C  C175  1  0.12722936  0.62215013  0.81799076  1  1.535983  0  0.218477  0.608252  0  4.174431  0
C  C176  1  0.63497690  0.02745850  0.57508267  1  0.081843  0  -0.080024  -0.077785  0  3.967021  0
C  C177  1  0.63568884  0.02770021  0.54525890  1  -0.088102  0  -0.088471  -0.129176  0  3.976606  0
C  C178  1  0.79976316  0.95422913  0.48259091  1  -0.071535  0  -0.089521  -0.138161  0  3.98083  0
C  C179  1  0.80089471  0.95434251  0.45272226  1  -0.074094  0  -0.080556  -0.082586  0  3.978437  0
C  C180  1  0.09189349  0.54684680  0.19241723  1  1.504351  0  0.210923  0.602524  0  4.145071  0
C  C181  1  0.10793839  0.59151826  0.21354068  1  0.001913  0  -0.018861  -0.039969  0  3.978391  0
C  C182  1  0.05616723  0.58535541  0.24188318  1  0.025481  0  -0.078462  -0.078867  0  3.972801  0
C  C183  1  0.06957442  0.62788748  0.26140942  1  -0.003829  0  -0.087779  -0.135703  0  3.976109  0
C  C184  1  0.13269249  0.67806551  0.25302156  1  -0.120862  0  0.000415  0.077941  0  3.980723  0
C  C185  1  0.18318540  0.68365534  0.22445853  1  0.010943  0  -0.086093  -0.125094  0  3.964311  0
C  C186  1  0.17296355  0.64101159  0.20507552  1  -0.038667  0  -0.076433  -0.075137  0  3.961647  0
C  C187  1  0.14142230  0.72524512  0.27254199  1  0.008993  0  -0.003855  0.071578  0  3.993132  0
C  C188  1  0.03095787  0.73433420  0.29401694  1  -0.067942  0  -0.093319  -0.144852  0  3.99847  0
C  C189  1  0.02961598  0.78250554  0.30969143  1  0.016758  0  -0.082885  -0.087015  0  3.988476  0
C  C190  1  0.13868708  0.82292228  0.30429017  1  -0.006364  0  -0.018676  -0.035685  0  3.953197  0
C  C191  1  0.25470472  0.81278177  0.28422690  1  -0.049764  0  -0.083951  -0.080131  0  3.970701  0
C  C192  1  0.25643421  0.76460556  0.26875298  1  -0.101517  0  -0.092333  -0.132089  0  3.969597  0
C  C193  1  0.12721979  0.87784970  0.31798606  1  1.535718  0  0.218562  0.608428  0  4.174353  0
C  C194  1  0.63498184  0.47253986  0.07508299  1  0.081536  0  -0.079977  -0.077911  0  3.967077  0
C  C195  1  0.63569149  0.47229708  0.04525879  1  -0.088098  0  -0.08857  -0.129298  0  3.976732  0
C  C196  1  0.79976295  0.54577175  0.98259185  1  -0.071796  0  -0.089492  -0.138128  0  3.980895  0
C  C197  1  0.80088992  0.54565893  0.95272342  1  -0.073956  0  -0.080588  -0.082731  0  3.978621  0
C  C198  1  0.59189765  0.95314759  0.30758476  1  1.504123  0  0.210704  0.602264  0  4.145079  0
C  C199  1  0.60794167  0.90847980  0.28645939  1  0.002023  0  -0.018933  -0.040071  0  3.978497  0
C  C200  1  0.55617444  0.91464382  0.25811771  1  0.025663  0  -0.078477  -0.078913  0  3.972785  0
C  C201  1  0.56958310  0.87211502  0.23858912  1  -0.003994  0  -0.087781  -0.135666  0  3.975909  0
C  C202  1  0.63269753  0.82193583  0.24697639  1  -0.120967  0  0.000417  0.077919  0  3.98074  0
C  C203  1  0.68318651  0.81634362  0.27553860  1  0.010918  0  -0.086035  -0.125137  0  3.964314  0
C  C204  1  0.67296777  0.85898329  0.29492418  1  -0.038716  0  -0.076365  -0.074935  0  3.961033  0
C  C205  1  0.64142534  0.77475907  0.22745467  1  0.009011  0  -0.003889  0.071567  0  3.993127  0
C  C206  1  0.53096717  0.76566623  0.20598091  1  -0.067997  0  -0.093469  -0.145075  0  3.998796  0
C  C207  1  0.52961650  0.71749732  0.19030600  1  0.016812  0  -0.082809  -0.087026  0  3.988305  0
C  C208  1  0.63869427  0.67707785  0.19570800  1  -0.006315  0  -0.018715  -0.035554  0  3.95297  0
C  C209  1  0.75471247  0.68722213  0.21577008  1  -0.051492  0  -0.083987  -0.080154  0  3.970657  0
C  C210  1  0.75644502  0.73539794  0.23124357  1  -0.100019  0  -0.09223  -0.132029  0  3.96933  0
C  C211  1  0.62722277  0.62215123  0.18201103  1  1.535346  0  0.218571  0.608321  0  4.17442  0
C  C212  1  0.13497857  0.02745944  0.42491677  1  0.081632  0  -0.079995  -0.077817  0  3.967267  0
C  C213  1  0.13569237  0.02770384  0.45473968  1  -0.087793  0  -0.088539  -0.129243  0  3.976863  0
C  C214  1  0.29976364  0.95423284  0.51740860  1  -0.071647  0  -0.08948  -0.137899  0  3.980753  0
C  C215  1  0.30089362  0.95434850  0.54727682  1  -0.073825  0  -0.080623  -0.082826  0  3.978752  0
C  C216  1  0.40810607  0.45315206  0.19241636  1  1.504361  0  0.210954  0.602575  0  4.145042  0
C  C217  1  0.39205710  0.40848170  0.21354029  1  0.001932  0  -0.018936  -0.040124  0  3.978611  0
C  C218  1  0.44382438  0.41464278  0.24188239  1  0.025642  0  -0.078516  -0.079017  0  3.972922  0
C  C219  1  0.43041995  0.37211265  0.26140890  1  -0.004263  0  -0.087733  -0.135449  0  3.976012  0
C  C220  1  0.36730625  0.32193263  0.25302085  1  -0.120567  0  0.000301  0.077706  0  3.980888  0
C  C221  1  0.31681722  0.31634417  0.22445821  1  0.010847  0  -0.086019  -0.125014  0  3.964364  0
C  C222  1  0.32702831  0.35898720  0.20507429  1  -0.038605  0  -0.076377  -0.074992  0  3.961434  0
C  C223  1  0.35857805  0.27475332  0.27254199  1  0.00901  0  -0.003879  0.071563  0  3.993243  0
C  C224  1  0.46903957  0.26566779  0.29401704  1  -0.067944  0  -0.093355  -0.144922  0  3.99843  0
C  C225  1  0.47038527  0.21749515  0.30969289  1  0.016727  0  -0.08284  -0.087027  0  3.988334  0
C  C226  1  0.36131518  0.17707640  0.30429030  1  -0.006226  0  -0.018714  -0.035801  0  3.953275  0
C  C227  1  0.24530277  0.18721458  0.28422650  1  -0.049597  0  -0.083947  -0.080056  0  3.97057  0
C  C228  1  0.24357063  0.23539209  0.26875186  1  -0.101434  0  -0.092296  -0.131963  0  3.969468  0
C  C229  1  0.37278966  0.12215013  0.31798628  1  1.535601  0  0.218632  0.608707  0  4.173837  0
C  C230  1  0.86502050  0.52745931  0.07508283  1  0.081812  0  -0.080013  -0.077905  0  3.967003  0
C  C231  1  0.86430556  0.52770428  0.04525949  1  -0.088156  0  -0.088554  -0.129272  0  3.976808  0
C  C232  1  0.70023616  0.45423447  0.98259102  1  -0.071687  0  -0.089436  -0.137918  0  3.980869  0
C  C233  1  0.69909818  0.45434947  0.95272258  1  -0.073947  0  -0.080633  -0.082774  0  3.978774  0
C  C234  1  0.90810574  0.04684468  0.30758148  1  1.504276  0  0.210943  0.602595  0  4.145156  0
C  C235  1  0.89205434  0.09151543  0.28645839  1  0.002025  0  -0.018986  -0.040217  0  3.978789  0
C  C236  1  0.94382546  0.08535481  0.25811548  1  0.02561  0  -0.078383  -0.07882  0  3.972953  0
C  C237  1  0.93041862  0.12788737  0.23858982  1  -0.004053  0  -0.087803  -0.135588  0  3.976317  0
C  C238  1  0.86731125  0.17806529  0.24697760  1  -0.120903  0  0.000355  0.077751  0  3.980755  0
C  C239  1  0.81681496  0.18365370  0.27554063  1  0.01067  0  -0.086012  -0.124972  0  3.964158  0
C  C240  1  0.82702502  0.14100824  0.29492327  1  -0.038361  0  -0.076386  -0.074923  0  3.961474  0
C  C241  1  0.85858411  0.22524662  0.22745731  1  0.008926  0  -0.003826  0.071717  0  3.993168  0
C  C242  1  0.96904633  0.23433227  0.20598171  1  -0.065259  0  -0.093423  -0.145096  0  3.998541  0
C  C243  1  0.97039319  0.28250328  0.19030629  1  0.013847  0  -0.082803  -0.086993  0  3.988238  0
C  C244  1  0.86132356  0.32292313  0.19570835  1  -0.006223  0  -0.018696  -0.035653  0  3.953333  0
C  C245  1  0.74531270  0.31278565  0.21577249  1  -0.050782  0  -0.083908  -0.080081  0  3.970804  0
C  C246  1  0.74358167  0.26460854  0.23124670  1  -0.100229  0  -0.092315  -0.132141  0  3.969683  0
C  C247  1  0.87279588  0.37784819  0.18201131  1  1.535777  0  0.218707  0.608766  0  4.173689  0
C  C248  1  0.36501403  0.97254105  0.42491746  1  0.081741  0  -0.080003  -0.077889  0  3.967299  0
C  C249  1  0.36430095  0.97229852  0.45473973  1  -0.087779  0  -0.088458  -0.129149  0  3.976781  0
C  C250  1  0.20023234  0.04577164  0.51740772  1  -0.071428  0  -0.089425  -0.137885  0  3.980845  0
C  C251  1  0.19909851  0.04565622  0.54727616  1  -0.074039  0  -0.080567  -0.082762  0  3.978651  0
C  C252  1  0.24999892  0.49999886  0.87800886  1  1.459088  0  0.213834  0.603897  0  4.155288  0
C  C253  1  0.24999587  0.49999918  0.90976720  1  0.014432  0  -0.022001  -0.045278  0  3.990257  0
C  C254  1  0.24999774  0.50000025  0.97018220  1  -0.100243  0  -0.003112  0.07063  0  3.988364  0
C  C255  1  0.24999748  0.50000033  0.00187225  1  0.057355  0  -0.001824  0.075392  0  3.995045  0
C  C256  1  0.24999821  0.49999896  0.06250951  1  0.048754  0  -0.019067  -0.044925  0  3.976861  0
C  C257  1  0.24999288  0.49999968  0.09467521  1  1.498194  0  0.21246  0.58728  0  4.211  0
C  C258  1  0.74999943  0.00000120  0.62199250  1  1.457873  0  0.213896  0.603865  0  4.155222  0
C  C259  1  0.74999744  0.99999967  0.59023343  1  0.014502  0  -0.022062  -0.045414  0  3.99035  0
C  C260  1  0.74999443  0.99999658  0.52981756  1  -0.100217  0  -0.003098  0.070705  0  3.988501  0
C  C261  1  0.74999633  0.99999747  0.49812773  1  0.057422  0  -0.001772  0.075443  0  3.995056  0
C  C262  1  0.75000017  0.99999723  0.43749047  1  0.048881  0  -0.019032  -0.044953  0  3.97691  0
C  C263  1  0.74999406  0.99999609  0.40532499  1  1.498587  0  0.212442  0.587309  0  4.211099  0
C  C264  1  0.75000002  0.49999987  0.12199235  1  1.457733  0  0.213901  0.603918  0  4.15528  0
C  C265  1  0.75000078  0.49999955  0.09023380  1  0.014764  0  -0.022102  -0.04527  0  3.990212  0
C  C266  1  0.74999891  0.50000214  0.02981836  1  -0.100105  0  -0.003009  0.070795  0  3.988257  0
C  C267  1  0.74999689  0.50000124  0.99812659  1  0.057557  0  -0.00179  0.075449  0  3.995093  0
C  C268  1  0.74999501  0.50000506  0.93749126  1  0.048848  0  -0.019058  -0.044972  0  3.976898  0
C  C269  1  0.74999119  0.50000311  0.90532600  1  1.498553  0  0.212424  0.587281  0  4.21091  0
C  C270  1  0.24999493  0.99999834  0.37800720  1  1.457946  0  0.213908  0.603951  0  4.155141  0
C  C271  1  0.24999578  0.00000028  0.40976777  1  0.014517  0  -0.022093  -0.045303  0  3.990345  0
C  C272  1  0.24999765  0.00000134  0.47018106  1  -0.100863  0  -0.00304  0.070754  0  3.988416  0
C  C273  1  0.24999689  0.00000126  0.50187176  1  0.057239  0  -0.001872  0.075192  0  3.995186  0
C  C274  1  0.24999534  0.00000232  0.56250859  1  0.048844  0  -0.019027  -0.044785  0  3.976808  0
C  C275  1  0.24998887  0.00000223  0.59467429  1  1.498069  0  0.212427  0.587187  0  4.211071  0
O  O276  1  0.99087749  0.49465501  0.80167506  1  -1.172123  0  -0.333569  -0.59149  0  2.257516  0
O  O277  1  0.83872684  0.44960201  0.83181382  1  -1.159325  0  -0.328813  -0.581394  0  2.333926  0
O  O278  1  0.98200539  0.11463729  0.66422831  1  -1.146806  0  -0.331573  -0.569446  0  2.273031  0
O  O279  1  0.77326182  0.08743126  0.68992433  1  -1.153587  0  -0.326252  -0.555475  0  2.307065  0
O  O280  1  0.12682005  0.48877918  0.86429913  1  -1.177789  0  -0.332805  -0.590099  0  2.339139  0
O  O281  1  0.18536341  0.45984367  0.10708551  1  -1.154477  0  -0.332141  -0.562792  0  2.261323  0
O  O282  1  0.49087314  0.00534652  0.69832522  1  -1.172051  0  -0.333554  -0.591534  0  2.257585  0
O  O283  1  0.33873356  0.05040140  0.66818504  1  -1.1588  0  -0.328783  -0.581396  0  2.333661  0
O  O284  1  0.48199834  0.38536261  0.83577196  1  -1.146733  0  -0.331547  -0.569413  0  2.273204  0
O  O285  1  0.27326466  0.41256882  0.81007297  1  -1.153751  0  -0.326214  -0.555458  0  2.307169  0
O  O286  1  0.62681528  0.01122035  0.63570040  1  -1.177135  0  -0.332831  -0.590092  0  2.338983  0
O  O287  1  0.68537766  0.04015325  0.39291428  1  -1.154667  0  -0.33209  -0.562752  0  2.261394  0
O  O288  1  0.50912754  0.50534403  0.80167356  1  -1.172423  0  -0.333625  -0.591523  0  2.257724  0
O  O289  1  0.66127664  0.55039525  0.83181216  1  -1.160142  0  -0.32875  -0.581362  0  2.334123  0
O  O290  1  0.51799632  0.88536450  0.66422926  1  -1.146812  0  -0.331573  -0.569521  0  2.27307  0
O  O291  1  0.72672450  0.91257242  0.68992908  1  -1.15397  0  -0.326205  -0.55544  0  2.307145  0
O  O292  1  0.37318431  0.51121780  0.86429965  1  -1.177698  0  -0.332813  -0.590165  0  2.339035  0
O  O293  1  0.31461923  0.54015523  0.10708594  1  -1.154751  0  -0.33209  -0.562747  0  2.261359  0
O  O294  1  0.00911349  0.99465498  0.69832880  1  -1.172489  0  -0.333665  -0.591593  0  2.257732  0
O  O295  1  0.16127292  0.94960879  0.66818968  1  -1.160423  0  -0.328927  -0.581451  0  2.333846  0
O  O296  1  0.01801562  0.61463452  0.83577525  1  -1.146981  0  -0.331556  -0.569359  0  2.273098  0
O  O297  1  0.22674411  0.58743210  0.81007475  1  -1.15354  0  -0.326161  -0.555396  0  2.307155  0
O  O298  1  0.87317774  0.98878077  0.63570215  1  -1.177279  0  -0.332804  -0.590067  0  2.339112  0
O  O299  1  0.81461178  0.95983818  0.39291367  1  -1.15494  0  -0.332129  -0.56279  0  2.261292  0
O  O300  1  0.00911573  0.50534535  0.19832743  1  -1.17248  0  -0.333653  -0.591527  0  2.257832  0
O  O301  1  0.16126981  0.55039429  0.16818868  1  -1.159826  0  -0.328882  -0.581405  0  2.333762  0
O  O302  1  0.01800155  0.88536145  0.33577032  1  -1.14685  0  -0.331521  -0.569437  0  2.273235  0
O  O303  1  0.22672682  0.91257072  0.31007065  1  -1.153827  0  -0.326185  -0.555416  0  2.307266  0
O  O304  1  0.87318231  0.51122037  0.13570207  1  -1.177222  0  -0.33281  -0.59016  0  2.339148  0
O  O305  1  0.81461152  0.54016115  0.89291462  1  -1.154817  0  -0.332113  -0.56273  0  2.261251  0
O  O306  1  0.50912351  0.99465383  0.30167449  1  -1.17212  0  -0.333536  -0.591389  0  2.25764  0
O  O307  1  0.66126195  0.94959733  0.33181359  1  -1.159248  0  -0.328737  -0.58124  0  2.333682  0
O  O308  1  0.51800974  0.61463693  0.16422774  1  -1.146718  0  -0.33152  -0.569365  0  2.273285  0
O  O309  1  0.72673770  0.58743153  0.18992673  1  -1.15348  0  -0.326245  -0.555497  0  2.307072  0
O  O310  1  0.37317680  0.98878366  0.36429844  1  -1.177244  0  -0.332838  -0.5901  0  2.338992  0
O  O311  1  0.31461556  0.95984630  0.60708542  1  -1.154618  0  -0.332068  -0.562717  0  2.261238  0
O  O312  1  0.49088626  0.49465510  0.19832786  1  -1.17246  0  -0.333659  -0.591565  0  2.257743  0
O  O313  1  0.33873945  0.44960591  0.16818754  1  -1.15916  0  -0.328861  -0.581311  0  2.333713  0
O  O314  1  0.48201863  0.11463667  0.33576936  1  -1.146846  0  -0.331632  -0.56965  0  2.272943  0
O  O315  1  0.27327901  0.08742956  0.31007256  1  -1.153811  0  -0.326223  -0.555524  0  2.306991  0
O  O316  1  0.62681806  0.48878052  0.13570112  1  -1.177169  0  -0.332842  -0.590155  0  2.339039  0
O  O317  1  0.68537742  0.45984513  0.89291548  1  -1.15468  0  -0.332098  -0.562775  0  2.261275  0
O  O318  1  0.99088887  0.00534335  0.30167026  1  -1.17255  0  -0.333644  -0.591579  0  2.257748  0
O  O319  1  0.83873630  0.05038872  0.33181131  1  -1.15984  0  -0.328923  -0.58138  0  2.333823  0
O  O320  1  0.98203362  0.38536340  0.16423026  1  -1.147241  0  -0.331676  -0.56973  0  2.27299  0
O  O321  1  0.77327655  0.41256867  0.18992259  1  -1.153666  0  -0.326249  -0.555542  0  2.306787  0
O  O322  1  0.12681205  0.01121430  0.36429884  1  -1.177244  0  -0.332833  -0.590195  0  2.339103  0
O  O323  1  0.18536315  0.04015771  0.60708496  1  -1.154472  0  -0.332118  -0.562725  0  2.261353  0
