# generated using pymatgen
data_MoH7C7NO4
_symmetry_space_group_name_H-M   'P 1'
_cell_length_a   7.40158458
_cell_length_b   8.30768717
_cell_length_c   14.05140711
_cell_angle_alpha   90.00017993
_cell_angle_beta   90.00043612
_cell_angle_gamma   113.97212182
_symmetry_Int_Tables_number   1
_chemical_formula_structural   MoH7C7NO4
_chemical_formula_sum   'Mo4 H28 C28 N4 O16'
_cell_volume   789.49401278
_cell_formula_units_Z   4
loop_
 _symmetry_equiv_pos_site_id
 _symmetry_equiv_pos_as_xyz
  1  'x, y, z'
loop_
 _atom_site_type_symbol
 _atom_site_label
 _atom_site_symmetry_multiplicity
 _atom_site_fract_x
 _atom_site_fract_y
 _atom_site_fract_z
 _atom_site_occupancy
 _atom_site_hle17_bader_spin_density
 _atom_site_hle17_ddec_charge
 _atom_site_hle17_ddec_spin_density
 _atom_site_hle17_ddec_sum_bond_order
 _atom_site_hle17_magmom
 _atom_site_hse06_10hf_bader_spin_density
 _atom_site_hse06_10hf_ddec_charge
 _atom_site_hse06_10hf_ddec_spin_density
 _atom_site_hse06_10hf_ddec_sum_bond_order
 _atom_site_hse06_10hf_magmom
 _atom_site_hse06_bader_spin_density
 _atom_site_hse06_ddec_charge
 _atom_site_hse06_ddec_spin_density
 _atom_site_hse06_ddec_sum_bond_order
 _atom_site_hse06_magmom
 _atom_site_pbe_bader_spin_density
 _atom_site_pbe_cm5_charge
 _atom_site_pbe_ddec_charge
 _atom_site_pbe_ddec_spin_density
 _atom_site_pbe_ddec_sum_bond_order
 _atom_site_pbe_magmom
Mo  Mo0  1  0.76337632  0.09606470  0.74761001  1  0  2.045929  0  4.096987  0  0  2.034767  0  4.642975  0  0  2.133696  0  4.610397  0  0  1.566072  1.962221  0  4.672892  0
Mo  Mo1  1  0.23662168  0.40393205  0.24760950  1  0  2.04594  0  4.097054  0  0  2.034736  0  4.643104  0  0  2.133673  0  4.61052  0  0  1.566048  1.962191  0  4.673018  0
Mo  Mo2  1  0.23662604  0.90393347  0.25238883  1  0  2.046024  0  4.096826  0  0  2.034831  0  4.64288  0  0  2.133754  0  4.610314  0  0  1.566118  1.962283  0  4.672796  0
Mo  Mo3  1  0.76337873  0.59606479  0.75239006  1  0  2.045968  0  4.096908  0  0  2.03476  0  4.642976  0  0  2.133688  0  4.6104  0  0  1.56607  1.962211  0  4.672892  0
H  H4  1  0.08281891  0.02811669  0.60684831  1  0  0.126023  0  0.961223  0  0  0.133549  0  1.024156  0  0  0.137428  0  1.022432  0  0  0.111805  0.130736  0  1.025639  0
H  H5  1  0.91717234  0.47187562  0.10684708  1  0  0.126056  0  0.961204  0  0  0.133627  0  1.024057  0  0  0.137506  0  1.022325  0  0  0.111806  0.1308  0  1.02558  0
H  H6  1  0.91717821  0.97187883  0.39315694  1  0  0.126026  0  0.961201  0  0  0.133589  0  1.024076  0  0  0.137462  0  1.022356  0  0  0.111778  0.130763  0  1.025595  0
H  H7  1  0.08282401  0.52812121  0.89315034  1  0  0.126049  0  0.961185  0  0  0.133553  0  1.024133  0  0  0.137423  0  1.022424  0  0  0.111804  0.130742  0  1.025617  0
H  H8  1  0.92221868  0.25532938  0.49836284  1  0  0.088129  0  0.932142  0  0  0.103477  0  0.993566  0  0  0.103611  0  0.992786  0  0  0.10779  0.103292  0  0.994262  0
H  H9  1  0.07776969  0.24466787  0.99836303  1  0  0.088111  0  0.932194  0  0  0.103492  0  0.993591  0  0  0.103632  0  0.992806  0  0  0.107768  0.103307  0  0.994291  0
H  H10  1  0.07777734  0.74467271  0.50163601  1  0  0.088151  0  0.932112  0  0  0.103482  0  0.993549  0  0  0.103617  0  0.992768  0  0  0.107777  0.103297  0  0.994247  0
H  H11  1  0.92222667  0.75532896  0.00163867  1  0  0.088191  0  0.93198  0  0  0.103514  0  0.993457  0  0  0.103652  0  0.992675  0  0  0.107779  0.103329  0  0.994155  0
H  H12  1  0.93051289  0.44093182  0.56562960  1  0  0.083812  0  0.948763  0  0  0.099215  0  1.011274  0  0  0.099519  0  1.01011  0  0  0.10961  0.098923  0  1.012189  0
H  H13  1  0.06948125  0.05906524  0.06562921  1  0  0.083809  0  0.948836  0  0  0.09927  0  1.011282  0  0  0.099575  0  1.010121  0  0  0.109634  0.098979  0  1.012197  0
H  H14  1  0.06948974  0.55907293  0.43436996  1  0  0.083776  0  0.948747  0  0  0.099199  0  1.011253  0  0  0.099506  0  1.010081  0  0  0.109596  0.098906  0  1.01217  0
H  H15  1  0.93052111  0.94093293  0.93436964  1  0  0.083805  0  0.948769  0  0  0.099235  0  1.011262  0  0  0.099542  0  1.010098  0  0  0.10961  0.098943  0  1.012179  0
H  H16  1  0.58432503  0.33499591  0.43064518  1  0  0.126753  0  0.949344  0  0  0.138207  0  1.003836  0  0  0.142119  0  1.0025  0  0  0.112506  0.135401  0  1.004978  0
H  H17  1  0.41566180  0.16500311  0.93063945  1  0  0.126873  0  0.949134  0  0  0.138319  0  1.00365  0  0  0.142233  0  1.002307  0  0  0.112506  0.135514  0  1.004795  0
H  H18  1  0.41566694  0.66500616  0.56935936  1  0  0.126822  0  0.949182  0  0  0.138267  0  1.003689  0  0  0.142188  0  1.002347  0  0  0.112501  0.13546  0  1.004832  0
H  H19  1  0.58433515  0.83499504  0.06935797  1  0  0.126824  0  0.949212  0  0  0.138275  0  1.003708  0  0  0.142186  0  1.002374  0  0  0.112514  0.135468  0  1.004852  0
H  H20  1  0.22070958  0.00784721  0.79425685  1  0  0.087544  0  0.909023  0  0  0.102064  0  0.967939  0  0  0.103051  0  0.965939  0  0  0.113012  0.101262  0  0.969535  0
H  H21  1  0.77928877  0.49214882  0.29425510  1  0  0.087583  0  0.90896  0  0  0.102097  0  0.967919  0  0  0.103084  0  0.965918  0  0  0.113009  0.101295  0  0.969511  0
H  H22  1  0.77929430  0.99214834  0.20574769  1  0  0.087564  0  0.908959  0  0  0.102066  0  0.967912  0  0  0.103052  0  0.965914  0  0  0.11298  0.101263  0  0.969512  0
H  H23  1  0.22071343  0.50785198  0.70574161  1  0  0.08754  0  0.909035  0  0  0.102079  0  0.96793  0  0  0.103067  0  0.965927  0  0  0.112992  0.101277  0  0.969529  0
H  H24  1  0.25263414  0.82909313  0.74088365  1  0  0.080177  0  0.925542  0  0  0.092256  0  0.99288  0  0  0.092149  0  0.992376  0  0  0.109104  0.092237  0  0.993376  0
H  H25  1  0.74736634  0.67090497  0.24088261  1  0  0.080223  0  0.925502  0  0  0.092315  0  0.992851  0  0  0.092212  0  0.992345  0  0  0.109131  0.092294  0  0.993345  0
H  H26  1  0.74736687  0.17090504  0.25911591  1  0  0.080223  0  0.925513  0  0  0.092305  0  0.992852  0  0  0.092201  0  0.992346  0  0  0.109118  0.092286  0  0.993346  0
H  H27  1  0.25263840  0.32909847  0.75911339  1  0  0.080244  0  0.925546  0  0  0.092298  0  0.992911  0  0  0.0922  0  0.992398  0  0  0.109139  0.092281  0  0.993405  0
H  H28  1  0.22368669  0.20379290  0.45737547  1  0  0.105948  0  0.957201  0  0  0.117616  0  1.016346  0  0  0.120574  0  1.013389  0  0  0.10921  0.115404  0  1.018544  0
H  H29  1  0.77630491  0.29620385  0.95737284  1  0  0.106013  0  0.957144  0  0  0.117649  0  1.016307  0  0  0.120598  0  1.013371  0  0  0.109212  0.115438  0  1.018503  0
H  H30  1  0.77630814  0.79620655  0.54262978  1  0  0.105977  0  0.957146  0  0  0.117557  0  1.016373  0  0  0.120505  0  1.013442  0  0  0.109208  0.115348  0  1.01856  0
H  H31  1  0.22369356  0.70379168  0.04262458  1  0  0.105996  0  0.957131  0  0  0.117624  0  1.016331  0  0  0.120589  0  1.013355  0  0  0.109208  0.115413  0  1.018527  0
C  C32  1  0.24081671  0.08491252  0.59251417  1  0  -0.150283  0  3.653809  0  0  -0.170846  0  3.906996  0  0  -0.178644  0  3.924365  0  0  -0.079999  -0.166103  0  3.895697  0
C  C33  1  0.75917679  0.41508225  0.09250936  1  0  -0.150326  0  3.654013  0  0  -0.170909  0  3.907107  0  0  -0.178694  0  3.924517  0  0  -0.079953  -0.166163  0  3.895788  0
C  C34  1  0.75918143  0.91508826  0.40748966  1  0  -0.150258  0  3.653924  0  0  -0.17084  0  3.907071  0  0  -0.17863  0  3.92445  0  0  -0.079905  -0.166093  0  3.895747  0
C  C35  1  0.24082346  0.58491723  0.90748807  1  0  -0.150142  0  3.653924  0  0  -0.170701  0  3.906991  0  0  -0.17845  0  3.924404  0  0  -0.079864  -0.165954  0  3.895682  0
C  C36  1  0.64557283  0.22862369  0.56198436  1  0  0.244108  0  3.730257  0  0  0.241319  0  3.987738  0  0  0.251042  0  4.006493  0  0  0.123277  0.234919  0  3.974746  0
C  C37  1  0.35442150  0.27137990  0.06198550  1  0  0.244206  0  3.730187  0  0  0.241287  0  3.987884  0  0  0.251004  0  4.006647  0  0  0.123279  0.23489  0  3.974888  0
C  C38  1  0.35442362  0.77138235  0.43801662  1  0  0.244256  0  3.730142  0  0  0.241405  0  3.98772  0  0  0.251122  0  4.006481  0  0  0.123314  0.235005  0  3.974729  0
C  C39  1  0.64557740  0.72861957  0.93801193  1  0  0.244186  0  3.730097  0  0  0.241315  0  3.98768  0  0  0.251038  0  4.006434  0  0  0.123297  0.234916  0  3.974687  0
C  C40  1  0.86694535  0.29581671  0.56300185  1  0  0.054481  0  3.682509  0  0  -0.004282  0  3.948839  0  0  0.005054  0  3.95261  0  0  -0.06927  -0.010626  0  3.945752  0
C  C41  1  0.13304451  0.20418293  0.06300055  1  0  0.054353  0  3.682759  0  0  -0.00445  0  3.949132  0  0  0.004877  0  3.952922  0  0  -0.069299  -0.010792  0  3.946045  0
C  C42  1  0.13305262  0.70418670  0.43699842  1  0  0.054384  0  3.682475  0  0  -0.004358  0  3.948802  0  0  0.004977  0  3.952574  0  0  -0.069294  -0.010702  0  3.945714  0
C  C43  1  0.86695168  0.79581653  0.93699687  1  0  0.054359  0  3.682368  0  0  -0.004402  0  3.948747  0  0  0.004921  0  3.952539  0  0  -0.069267  -0.010743  0  3.945661  0
C  C44  1  0.37124497  0.06562608  0.65820890  1  0  0.250113  0  3.713715  0  0  0.247371  0  3.966495  0  0  0.257508  0  3.983911  0  0  0.12508  0.240688  0  3.954457  0
C  C45  1  0.62874834  0.43437214  0.15820716  1  0  0.250052  0  3.713943  0  0  0.24742  0  3.966573  0  0  0.257498  0  3.984068  0  0  0.125016  0.240738  0  3.954532  0
C  C46  1  0.62875722  0.93437472  0.34179492  1  0  0.250086  0  3.713748  0  0  0.24737  0  3.96649  0  0  0.257504  0  3.983904  0  0  0.125032  0.240691  0  3.954449  0
C  C47  1  0.37125445  0.56562997  0.84179026  1  0  0.250017  0  3.714012  0  0  0.247423  0  3.966512  0  0  0.257427  0  3.984114  0  0  0.125017  0.240742  0  3.954478  0
C  C48  1  0.52419604  0.25638437  0.49418382  1  0  -0.1456  0  3.643949  0  0  -0.167471  0  3.897507  0  0  -0.175623  0  3.915298  0  0  -0.078792  -0.162458  0  3.885839  0
C  C49  1  0.47579419  0.24361416  0.99417990  1  0  -0.145717  0  3.643628  0  0  -0.167544  0  3.897209  0  0  -0.175691  0  3.915  0  0  -0.078776  -0.162531  0  3.88554  0
C  C50  1  0.47579982  0.74362035  0.50581930  1  0  -0.145728  0  3.64367  0  0  -0.167574  0  3.897212  0  0  -0.175734  0  3.915013  0  0  -0.078801  -0.162561  0  3.885548  0
C  C51  1  0.52420335  0.75638531  0.00581753  1  0  -0.145696  0  3.643602  0  0  -0.167531  0  3.897176  0  0  -0.175684  0  3.914967  0  0  -0.078799  -0.162517  0  3.885508  0
C  C52  1  0.32576268  0.97283562  0.75261157  1  0  0.067265  0  3.671949  0  0  0.011902  0  3.940628  0  0  0.021888  0  3.9427  0  0  -0.063597  0.005074  0  3.93876  0
C  C53  1  0.67423414  0.52715998  0.25260998  1  0  0.067221  0  3.671905  0  0  0.01176  0  3.940677  0  0  0.021754  0  3.942767  0  0  -0.063596  0.004942  0  3.938787  0
C  C54  1  0.67424239  0.02716256  0.24739012  1  0  0.067109  0  3.671865  0  0  0.011718  0  3.940584  0  0  0.021701  0  3.942655  0  0  -0.063642  0.004888  0  3.938712  0
C  C55  1  0.32576416  0.47283817  0.74738602  1  0  0.067211  0  3.672003  0  0  0.011805  0  3.940633  0  0  0.021819  0  3.942734  0  0  -0.06361  0.004971  0  3.938767  0
C  C56  1  0.32005799  0.18266457  0.51011555  1  0  0.04031  0  3.641022  0  0  0.017408  0  3.896846  0  0  0.025252  0  3.909943  0  0  -0.056177  0.01254  0  3.887958  0
C  C57  1  0.67993545  0.31733572  0.01011523  1  0  0.040177  0  3.641359  0  0  0.017288  0  3.897212  0  0  0.025129  0  3.910302  0  0  -0.05623  0.012425  0  3.888327  0
C  C58  1  0.67993879  0.81733620  0.48988827  1  0  0.040281  0  3.640919  0  0  0.017459  0  3.896767  0  0  0.0253  0  3.909858  0  0  -0.056194  0.012592  0  3.887882  0
C  C59  1  0.32006615  0.68266376  0.98988291  1  0  0.040147  0  3.641368  0  0  0.017228  0  3.897233  0  0  0.025075  0  3.910325  0  0  -0.056284  0.012362  0  3.888346  0
N  N60  1  0.56600133  0.13502304  0.64060044  1  0  -0.447386  0  3.389626  0  0  -0.40127  0  3.644658  0  0  -0.424709  0  3.668537  0  0  -0.371052  -0.384965  0  3.628309  0
N  N61  1  0.43399299  0.36497497  0.14059851  1  0  -0.4473  0  3.390058  0  0  -0.401154  0  3.645059  0  0  -0.424563  0  3.668947  0  0  -0.371003  -0.384848  0  3.628706  0
N  N62  1  0.43399876  0.86497906  0.35940267  1  0  -0.447382  0  3.38969  0  0  -0.401252  0  3.644741  0  0  -0.424678  0  3.668608  0  0  -0.371035  -0.384949  0  3.62839  0
N  N63  1  0.56600710  0.63502714  0.85939963  1  0  -0.447393  0  3.39008  0  0  -0.401256  0  3.64503  0  0  -0.424647  0  3.668945  0  0  -0.371051  -0.384954  0  3.628685  0
O  O64  1  0.50370665  0.01593792  0.80465567  1  0  -0.567615  0  2.017862  0  0  -0.535117  0  2.288362  0  0  -0.565433  0  2.289605  0  0  -0.394941  -0.513014  0  2.287351  0
O  O65  1  0.49629506  0.48406221  0.30465562  1  0  -0.567651  0  2.017862  0  0  -0.535125  0  2.288388  0  0  -0.565439  0  2.289628  0  0  -0.394972  -0.513022  0  2.287368  0
O  O66  1  0.49629740  0.98405501  0.19534389  1  0  -0.567625  0  2.017862  0  0  -0.535102  0  2.28835  0  0  -0.565415  0  2.289595  0  0  -0.394974  -0.512997  0  2.287336  0
O  O67  1  0.50370968  0.51594124  0.69534251  1  0  -0.56763  0  2.017868  0  0  -0.535144  0  2.288395  0  0  -0.565456  0  2.289633  0  0  -0.394949  -0.513032  0  2.287377  0
O  O68  1  0.92806847  0.23286860  0.64529260  1  0  -0.582766  0  2.074883  0  0  -0.547737  0  2.354212  0  0  -0.579228  0  2.356285  0  0  -0.394282  -0.524765  0  2.352455  0
O  O69  1  0.07192805  0.26712816  0.14529260  1  0  -0.582667  0  2.074996  0  0  -0.54763  0  2.354363  0  0  -0.57912  0  2.356443  0  0  -0.394247  -0.52466  0  2.352608  0
O  O70  1  0.07193357  0.76713483  0.35470625  1  0  -0.582697  0  2.074815  0  0  -0.547665  0  2.354133  0  0  -0.579154  0  2.356207  0  0  -0.394229  -0.52469  0  2.352372  0
O  O71  1  0.92807253  0.73286606  0.85470838  1  0  -0.582698  0  2.074844  0  0  -0.547658  0  2.354189  0  0  -0.579145  0  2.35627  0  0  -0.39426  -0.524688  0  2.35243  0
O  O72  1  0.92013418  0.16707472  0.84521272  1  0  -0.721994  0  1.451608  0  0  -0.715405  0  1.704403  0  0  -0.740972  0  1.694058  0  0  -0.537211  -0.696961  0  1.712519  0
O  O73  1  0.07986987  0.33292330  0.34521358  1  0  -0.722024  0  1.451635  0  0  -0.715418  0  1.704436  0  0  -0.740993  0  1.69409  0  0  -0.537192  -0.696967  0  1.712549  0
O  O74  1  0.07986938  0.83292609  0.15478613  1  0  -0.722026  0  1.451628  0  0  -0.715442  0  1.704437  0  0  -0.741007  0  1.694093  0  0  -0.537218  -0.696993  0  1.712554  0
O  O75  1  0.92013807  0.66707227  0.65478812  1  0  -0.721998  0  1.45154  0  0  -0.715388  0  1.704335  0  0  -0.740954  0  1.69399  0  0  -0.537207  -0.696937  0  1.712446  0
O  O76  1  0.75778144  0.89103530  0.71775891  1  0  -0.784954  0  1.642256  0  0  -0.79703  0  1.937306  0  0  -0.828284  0  1.930874  0  0  -0.542143  -0.773821  0  1.942181  0
O  O77  1  0.24221721  0.60896250  0.21776073  1  0  -0.784962  0  1.642244  0  0  -0.797016  0  1.937271  0  0  -0.828276  0  1.93084  0  0  -0.542134  -0.773808  0  1.942152  0
O  O78  1  0.24222871  0.10896816  0.28223851  1  0  -0.784946  0  1.642194  0  0  -0.797026  0  1.937268  0  0  -0.828283  0  1.930839  0  0  -0.542136  -0.773819  0  1.942153  0
O  O79  1  0.75777719  0.39103301  0.78224026  1  0  -0.78496  0  1.642292  0  0  -0.797021  0  1.93734  0  0  -0.828276  0  1.930907  0  0  -0.542142  -0.773815  0  1.942219  0
