# generated using pymatgen
data_Nd2P5H40C23N5O19
_symmetry_space_group_name_H-M   'P 1'
_cell_length_a   12.95360685
_cell_length_b   13.36291487
_cell_length_c   14.97844066
_cell_angle_alpha   109.04753782
_cell_angle_beta   101.31232436
_cell_angle_gamma   111.13302473
_symmetry_Int_Tables_number   1
_chemical_formula_structural   Nd2P5H40C23N5O19
_chemical_formula_sum   'Nd4 P10 H80 C46 N10 O38'
_cell_volume   2136.25049720
_cell_formula_units_Z   2
loop_
 _symmetry_equiv_pos_site_id
 _symmetry_equiv_pos_as_xyz
  1  'x, y, z'
loop_
 _atom_site_type_symbol
 _atom_site_label
 _atom_site_symmetry_multiplicity
 _atom_site_fract_x
 _atom_site_fract_y
 _atom_site_fract_z
 _atom_site_occupancy
 _atom_site_pbe_bader_charge
 _atom_site_pbe_bader_spin_density
 _atom_site_pbe_cm5_charge
 _atom_site_pbe_ddec_charge
 _atom_site_pbe_ddec_spin_density
 _atom_site_pbe_ddec_sum_bond_order
 _atom_site_pbe_magmom
Nd  Nd0  1  0.18615735  0.64521408  0.92670866  1  2.254403  0  1.544985  2.21676  0  2.075177  0
Nd  Nd1  1  0.40163543  0.89246594  0.84506185  1  2.247759  0  1.535062  2.223161  0  2.093074  0
Nd  Nd2  1  0.81384326  0.35478888  0.07329145  1  2.25437  0  1.544988  2.216827  0  2.075118  0
Nd  Nd3  1  0.59836748  0.10753521  0.15493881  1  2.247771  0  1.535063  2.22321  0  2.092983  0
P  P4  1  0.11249677  0.58832659  0.13087696  1  3.401584  0  0.362087  1.349047  0  5.348802  0
P  P5  1  0.68069871  0.18391666  0.43062072  1  3.412565  0  0.328017  1.304801  0  5.48931  0
P  P6  1  0.28431683  0.91912341  0.06176297  1  3.426582  0  0.306408  1.32895  0  5.4614  0
P  P7  1  0.51758939  0.82765479  0.06035117  1  3.396509  0  0.304901  1.292959  0  5.518641  0
P  P8  1  0.08336242  0.77870296  0.77024894  1  3.413085  0  0.329943  1.343695  0  5.448396  0
P  P9  1  0.88750375  0.41167280  0.86912412  1  3.401722  0  0.362084  1.349087  0  5.348816  0
P  P10  1  0.31930297  0.81608183  0.56937963  1  3.412793  0  0.328107  1.304902  0  5.489048  0
P  P11  1  0.71568254  0.08087688  0.93823683  1  3.426588  0  0.30641  1.328966  0  5.461377  0
P  P12  1  0.48241117  0.17234639  0.93964842  1  3.396556  0  0.304979  1.293104  0  5.51849  0
P  P13  1  0.91663807  0.22129463  0.22974894  1  3.413108  0  0.330026  1.343753  0  5.448263  0
H  H14  1  0.34472429  0.76526733  0.40037149  1  0.550452  0  0.282889  0.264273  0  1.037908  0
H  H15  1  0.53996999  0.91680611  0.26042925  1  0.552426  0  0.312597  0.278384  0  0.965845  0
H  H16  1  0.08322194  0.93095855  0.92057100  1  0.549823  0  0.292154  0.271857  0  1.013817  0
H  H17  1  0.42642553  0.58120689  0.95305575  1  0.532879  0  0.317141  0.269324  0  0.950912  0
H  H18  1  0.47162454  0.57474094  0.63129820  1  0.111343  0  0.109975  0.11662  0  0.993849  0
H  H19  1  0.09475558  0.67482157  0.55960124  1  0.559184  0  0.303088  0.279234  0  0.964645  0
H  H20  1  0.41093034  0.36440689  0.50959132  1  0.079285  0  0.106848  0.109809  0  0.989511  0
H  H21  1  0.10925892  0.74263997  0.11585087  1  0.670869  0  0.312102  0.400652  0  0.942422  0
H  H22  1  0.25634011  0.19547293  0.51962150  1  0.056686  0  0.104736  0.100133  0  0.98887  0
H  H23  1  0.16648768  0.23501159  0.65174319  1  0.055167  0  0.10891  0.115096  0  0.97961  0
H  H24  1  0.20787451  0.55827906  0.26978808  1  0.090548  0  0.122889  0.143993  0  0.963567  0
H  H25  1  0.14364108  0.65388464  0.30892334  1  0.114784  0  0.128075  0.159895  0  0.972144  0
H  H26  1  0.30053879  0.81870346  0.21134121  1  0.128699  0  0.127682  0.118359  0  1.016316  0
H  H27  1  0.25048928  0.86239022  0.31279120  1  0.083362  0  0.12406  0.117982  0  0.937768  0
H  H28  1  0.45588622  0.98394946  0.43492234  1  0.067836  0  0.106172  0.082117  0  1.034603  0
H  H29  1  0.44107126  0.02340307  0.33186398  1  0.133532  0  0.135457  0.14132  0  0.964921  0
H  H30  1  0.59893138  0.79952626  0.32025800  1  0.090758  0  0.114288  0.097414  0  0.991431  0
H  H31  1  0.54775781  0.83448464  0.42326624  1  0.081399  0  0.11667  0.104644  0  0.984116  0
H  H32  1  0.40714565  0.63472714  0.29085309  1  0.055102  0  0.118256  0.105326  0  0.954531  0
H  H33  1  0.38527237  0.68970639  0.19763831  1  0.116399  0  0.120252  0.116554  0  1.007683  0
H  H34  1  0.68340673  0.02444959  0.47653764  1  0.031721  0  0.108405  0.1175  0  1.004099  0
H  H35  1  0.72246333  0.01578496  0.36699423  1  0.106181  0  0.127511  0.155004  0  0.96643  0
H  H36  1  0.29422544  0.08624055  0.03560112  1  0.086132  0  0.129466  0.146832  0  1.00753  0
H  H37  1  0.25850225  0.09181678  0.14497215  1  0.094874  0  0.122031  0.13873  0  0.967478  0
H  H38  1  0.03914771  0.85400562  0.04497326  1  0.129301  0  0.131601  0.136241  0  0.978037  0
H  H39  1  0.05508698  0.99374973  0.12983945  1  0.082887  0  0.116175  0.105411  0  0.967261  0
H  H40  1  0.12501918  0.16534683  0.08758634  1  0.095009  0  0.118587  0.103207  0  0.965473  0
H  H41  1  0.15527936  0.14260283  0.97280654  1  0.049497  0  0.118712  0.101379  0  0.968218  0
H  H42  1  0.58913959  0.73309177  0.93593001  1  0.118431  0  0.124255  0.146041  0  1.022623  0
H  H43  1  0.67940142  0.76807623  0.06063446  1  0.082105  0  0.119819  0.138965  0  0.976107  0
H  H44  1  0.49782150  0.66256647  0.13254598  1  0.114932  0  0.129683  0.120884  0  1.00757  0
H  H45  1  0.61968032  0.62814989  0.12992907  1  0.086313  0  0.119127  0.105339  0  0.993898  0
H  H46  1  0.64615308  0.55159844  0.96577162  1  0.126814  0  0.134533  0.134308  0  0.940862  0
H  H47  1  0.54004317  0.53069514  0.85541023  1  0.086824  0  0.125428  0.115494  0  0.965525  0
H  H48  1  0.96758428  0.75446072  0.60774162  1  0.08246  0  0.118471  0.135404  0  0.971695  0
H  H49  1  0.89115110  0.63479130  0.63645735  1  0.055584  0  0.115286  0.127638  0  0.978364  0
H  H50  1  0.84035707  0.48995251  0.47577082  1  0.086948  0  0.117168  0.098742  0  0.970016  0
H  H51  1  0.90635345  0.60361215  0.43699126  1  0.097393  0  0.11807  0.108346  0  0.988682  0
H  H52  1  0.11770301  0.58897115  0.67911188  1  0.180457  0  0.132811  0.120921  0  1.027584  0
H  H53  1  0.96628586  0.48175543  0.61887046  1  0.090112  0  0.122885  0.118003  0  0.963384  0
H  H54  1  0.65527660  0.23473117  0.59963006  1  0.550473  0  0.282888  0.264247  0  1.037955  0
H  H55  1  0.46002975  0.08319329  0.73957035  1  0.552423  0  0.31257  0.278261  0  0.966004  0
H  H56  1  0.91677978  0.06904172  0.07942787  1  0.549811  0  0.292152  0.271821  0  1.013826  0
H  H57  1  0.57357545  0.41879518  0.04694551  1  0.532888  0  0.317136  0.269342  0  0.950906  0
H  H58  1  0.52836935  0.42525941  0.36870000  1  0.105953  0  0.110008  0.116619  0  0.99383  0
H  H59  1  0.90524569  0.32517602  0.44039811  1  0.55917  0  0.303072  0.27922  0  0.964683  0
H  H60  1  0.58905966  0.63559528  0.49040674  1  0.07956  0  0.106888  0.109847  0  0.989555  0
H  H61  1  0.89074118  0.25735854  0.88415188  1  0.670783  0  0.312088  0.400609  0  0.942483  0
H  H62  1  0.74365501  0.80453009  0.48038036  1  0.056624  0  0.104713  0.100063  0  0.988882  0
H  H63  1  0.83351254  0.76499228  0.34826180  1  0.055161  0  0.108918  0.115091  0  0.979583  0
H  H64  1  0.79212519  0.44171855  0.73021234  1  0.090606  0  0.122899  0.143995  0  0.963543  0
H  H65  1  0.85635899  0.34611207  0.69107756  1  0.11596  0  0.128068  0.159893  0  0.972154  0
H  H66  1  0.69945657  0.18129330  0.78865955  1  0.128705  0  0.127684  0.118367  0  1.016284  0
H  H67  1  0.74951041  0.13760740  0.68721189  1  0.083335  0  0.124054  0.117992  0  0.937766  0
H  H68  1  0.54411481  0.01605439  0.56507677  1  0.06789  0  0.106211  0.082096  0  1.034644  0
H  H69  1  0.55892568  0.97659366  0.66813104  1  0.133565  0  0.135488  0.141388  0  0.964858  0
H  H70  1  0.40106835  0.20047314  0.67974361  1  0.09079  0  0.114292  0.097386  0  0.991417  0
H  H71  1  0.45224078  0.16551567  0.57673410  1  0.081382  0  0.116669  0.104632  0  0.984087  0
H  H72  1  0.59285602  0.36527135  0.70914793  1  0.055144  0  0.11828  0.105339  0  0.95452  0
H  H73  1  0.61472732  0.31029122  0.80236278  1  0.116347  0  0.120262  0.116587  0  1.007614  0
H  H74  1  0.31659099  0.97554714  0.52346085  1  0.031685  0  0.1084  0.117504  0  1.00405  0
H  H75  1  0.27753715  0.98421264  0.63300566  1  0.106237  0  0.127498  0.154977  0  0.966473  0
H  H76  1  0.70577706  0.91375972  0.96439855  1  0.086209  0  0.129505  0.146899  0  1.00747  0
H  H77  1  0.74149828  0.90818261  0.85502626  1  0.094838  0  0.122026  0.138721  0  0.967467  0
H  H78  1  0.96085443  0.14599553  0.95502527  1  0.129275  0  0.131608  0.136296  0  0.97803  0
H  H79  1  0.94491438  0.00625143  0.87015894  1  0.082872  0  0.11617  0.105424  0  0.967317  0
H  H80  1  0.87498338  0.83465522  0.91241185  1  0.094972  0  0.118578  0.103166  0  0.965444  0
H  H81  1  0.84472398  0.85739920  0.02719111  1  0.04904  0  0.118653  0.101215  0  0.968256  0
H  H82  1  0.41086176  0.26690939  0.06406972  1  0.118468  0  0.124264  0.14609  0  1.02258  0
H  H83  1  0.32060034  0.23192583  0.93936493  1  0.082118  0  0.119833  0.139005  0  0.976086  0
H  H84  1  0.50217668  0.33743294  0.86745336  1  0.114948  0  0.129693  0.120906  0  1.007562  0
H  H85  1  0.38031909  0.37185220  0.87007193  1  0.094529  0  0.119122  0.105344  0  0.993868  0
H  H86  1  0.35384786  0.44840184  0.03422844  1  0.12683  0  0.134541  0.134325  0  0.940861  0
H  H87  1  0.45995819  0.46930602  0.14458883  1  0.086842  0  0.125444  0.115508  0  0.965522  0
H  H88  1  0.03241782  0.24553864  0.39225638  1  0.082468  0  0.118444  0.135358  0  0.971727  0
H  H89  1  0.10884943  0.36520808  0.36354039  1  0.05555  0  0.115273  0.127603  0  0.978348  0
H  H90  1  0.15964420  0.51004508  0.52422854  1  0.086941  0  0.117221  0.098795  0  0.970034  0
H  H91  1  0.09364745  0.39638634  0.56300829  1  0.097349  0  0.118057  0.108349  0  0.988731  0
H  H92  1  0.88229909  0.41102822  0.32088746  1  0.180467  0  0.132826  0.120954  0  1.027509  0
H  H93  1  0.03371582  0.51824305  0.38112989  1  0.090108  0  0.122882  0.118021  0  0.963321  0
C  C94  1  0.21294068  0.45266753  0.79249885  1  1.586268  0  0.185509  0.552086  0  4.307539  0
C  C95  1  0.38715421  0.64893097  0.77411359  1  1.590064  0  0.203504  0.578534  0  4.228498  0
C  C96  1  0.26854291  0.42567522  0.71456751  1  -0.018738  0  -0.005784  -0.027408  0  3.955422  0
C  C97  1  0.35439828  0.52165419  0.70815664  1  -0.087648  0  -0.013325  -0.062269  0  3.937066  0
C  C98  1  0.40604537  0.49861115  0.63484507  1  -0.059598  0  -0.081939  -0.097392  0  3.985514  0
C  C99  1  0.37140446  0.38180991  0.56721672  1  -0.022005  0  -0.095338  -0.09982  0  4.029024  0
C  C100  1  0.28491585  0.28690308  0.57310389  1  -0.068444  0  -0.088873  -0.079638  0  4.043992  0
C  C101  1  0.23429944  0.30864678  0.64703925  1  -0.058095  0  -0.092921  -0.130604  0  4.003962  0
C  C102  1  0.19682478  0.63369281  0.26344145  1  -0.286957  0  -0.067326  -0.376552  0  3.768544  0
C  C103  1  0.32020493  0.84281724  0.29238527  1  0.212952  0  -0.057567  -0.093039  0  3.790383  0
C  C104  1  0.43899718  0.95229221  0.35381924  1  0.217562  0  -0.056552  -0.085847  0  3.774546  0
C  C105  1  0.52989983  0.81752377  0.34353437  1  0.198239  0  -0.058598  -0.091757  0  3.807881  0
C  C106  1  0.40852027  0.71194203  0.27877737  1  0.236652  0  -0.058518  -0.090732  0  3.800485  0
C  C107  1  0.66107792  0.03085414  0.40456514  1  -0.264851  0  -0.075639  -0.376083  0  3.761557  0
C  C108  1  0.23689810  0.03371528  0.06536481  1  -0.280915  0  -0.064209  -0.362131  0  3.793032  0
C  C109  1  0.02926145  0.93345390  0.04997106  1  0.228777  0  -0.057229  -0.091658  0  3.790807  0
C  C110  1  0.09726397  0.10158418  0.00849471  1  0.248511  0  -0.052816  -0.074382  0  3.821547  0
C  C111  1  0.58895004  0.73479925  0.00970616  1  -0.266491  0  -0.073419  -0.372361  0  3.742878  0
C  C112  1  0.52647036  0.60084231  0.09013427  1  0.219359  0  -0.054016  -0.087497  0  3.767063  0
C  C113  1  0.55240196  0.52461859  0.92771885  1  0.21977  0  -0.048591  -0.08587  0  3.761307  0
C  C114  1  0.97788226  0.69304677  0.63850063  1  -0.235615  0  -0.070235  -0.3568  0  3.780335  0
C  C115  1  0.92144084  0.54325315  0.46665104  1  0.202712  0  -0.055596  -0.079758  0  3.799361  0
C  C116  1  0.04426109  0.53534474  0.60665532  1  0.193519  0  -0.054779  -0.088525  0  3.76947  0
C  C117  1  0.78705793  0.54733458  0.20750736  1  1.585778  0  0.185517  0.552073  0  4.307567  0
C  C118  1  0.61284404  0.35107203  0.22588947  1  1.590367  0  0.203516  0.578548  0  4.228385  0
C  C119  1  0.73145691  0.57432777  0.28543648  1  -0.018122  0  -0.005936  -0.027776  0  3.955566  0
C  C120  1  0.64559873  0.47834613  0.29184410  1  -0.087792  0  -0.013225  -0.062158  0  3.936984  0
C  C121  1  0.59395011  0.50139097  0.36515526  1  -0.054163  0  -0.081977  -0.097321  0  3.985474  0
C  C122  1  0.62859104  0.61819221  0.43278294  1  -0.022471  0  -0.095367  -0.099931  0  4.029154  0
C  C123  1  0.71507959  0.71309726  0.42689725  1  -0.068348  0  -0.088844  -0.079546  0  4.044049  0
C  C124  1  0.76570037  0.69135620  0.35296474  1  -0.05815  0  -0.092871  -0.130409  0  4.003878  0
C  C125  1  0.80317569  0.36630479  0.73655978  1  -0.288323  0  -0.067329  -0.376573  0  3.768609  0
C  C126  1  0.67979320  0.15718038  0.70761489  1  0.21295  0  -0.057591  -0.0931  0  3.790496  0
C  C127  1  0.56100298  0.04770807  0.64617936  1  0.217162  0  -0.056597  -0.085905  0  3.774552  0
C  C128  1  0.47009991  0.18247563  0.65646591  1  0.198226  0  -0.05855  -0.091622  0  3.807711  0
C  C129  1  0.59147906  0.28805647  0.72122258  1  0.236693  0  -0.05855  -0.090782  0  3.800379  0
C  C130  1  0.33892062  0.96914437  0.59543534  1  -0.265089  0  -0.075649  -0.376115  0  3.761521  0
C  C131  1  0.76310523  0.96628676  0.93463551  1  -0.280894  0  -0.064214  -0.362178  0  3.793016  0
C  C132  1  0.97074032  0.06654815  0.95002699  1  0.228778  0  -0.057261  -0.091822  0  3.791004  0
C  C133  1  0.90273776  0.89841609  0.99150348  1  0.248253  0  -0.052736  -0.074178  0  3.821254  0
C  C134  1  0.41105012  0.26520104  0.99029311  1  -0.266501  0  -0.073465  -0.37249  0  3.742835  0
C  C135  1  0.47352979  0.39915798  0.90986633  1  0.211131  0  -0.054035  -0.087562  0  3.767075  0
C  C136  1  0.44759898  0.47538169  0.07228122  1  0.219747  0  -0.048612  -0.085908  0  3.761387  0
C  C137  1  0.02211943  0.30695170  0.36149838  1  -0.235523  0  -0.070168  -0.356643  0  3.780344  0
C  C138  1  0.07855960  0.45674266  0.53334766  1  0.202744  0  -0.05561  -0.079803  0  3.799508  0
C  C139  1  0.95573940  0.46465285  0.39334390  1  0.193494  0  -0.054747  -0.088494  0  3.769324  0
N  N140  1  0.31679218  0.73901659  0.31131199  1  -1.006057  0  -0.334908  -0.0034  0  3.529154  0
N  N141  1  0.53978625  0.92931394  0.33594717  1  -0.99673  0  -0.338367  0.019332  0  3.527369  0
N  N142  1  0.11198235  0.99560948  0.00728370  1  -1.028274  0  -0.331194  0.000289  0  3.53492  0
N  N143  1  0.51778806  0.60946061  0.99210264  1  -1.017397  0  -0.343557  0.028452  0  3.588279  0
N  N144  1  0.01632355  0.61687589  0.56908330  1  -1.034613  0  -0.336111  0.014381  0  3.545762  0
N  N145  1  0.68320912  0.26098279  0.68868988  1  -1.006066  0  -0.334903  -0.003361  0  3.529234  0
N  N146  1  0.46021345  0.07068367  0.66405125  1  -0.996715  0  -0.338358  0.019422  0  3.527327  0
N  N147  1  0.88801901  0.00439168  0.99271403  1  -1.027467  0  -0.331219  0.000374  0  3.534816  0
N  N148  1  0.48221250  0.39054057  0.00789696  1  -1.017451  0  -0.343562  0.028409  0  3.588338  0
N  N149  1  0.98367656  0.38312261  0.43091544  1  -1.034693  0  -0.336173  0.014231  0  3.545986  0
O  O150  1  0.10991537  0.44167345  0.76480322  1  -1.158464  0  -0.326308  -0.557307  0  2.168303  0
O  O151  1  0.27754283  0.49475035  0.88603999  1  -1.201115  0  -0.361804  -0.64084  0  2.252789  0
O  O152  1  0.30839371  0.67124054  0.80594822  1  -1.212173  0  -0.399021  -0.726746  0  2.357684  0
O  O153  1  0.48772382  0.73006540  0.79370903  1  -1.17663  0  -0.32628  -0.574318  0  2.1687  0
O  O154  1  0.19720165  0.59900959  0.07334865  1  -1.460932  0  -0.449676  -0.852946  0  2.231847  0
O  O155  1  0.01224935  0.46679943  0.09685855  1  -1.46713  0  -0.465528  -0.841692  0  2.294734  0
O  O156  1  0.06400954  0.68416176  0.13982123  1  -1.432189  0  -0.395059  -0.685064  0  2.183938  0
O  O157  1  0.61349953  0.20890596  0.50373266  1  -1.452457  0  -0.410787  -0.749219  0  2.221715  0
O  O158  1  0.62047781  0.17684668  0.32920957  1  -1.474024  0  -0.474315  -0.85329  0  2.252676  0
O  O159  1  0.81424295  0.26236229  0.48115480  1  -1.459419  0  -0.396197  -0.75783  0  2.129334  0
O  O160  1  0.29114247  0.86274500  0.95718937  1  -1.478539  0  -0.495191  -0.94768  0  2.474029  0
O  O161  1  0.18905997  0.81642663  0.07026336  1  -1.483808  0  -0.423741  -0.841443  0  2.277968  0
O  O162  1  0.40217730  0.98962164  0.14941825  1  -1.472768  0  -0.446336  -0.835008  0  2.231944  0
O  O163  1  0.07206574  0.68621395  0.81160588  1  -1.46776  0  -0.479454  -0.878447  0  2.264978  0
O  O164  1  0.03670863  0.86549438  0.82034335  1  -1.452401  0  -0.402366  -0.743049  0  2.16602  0
O  O165  1  0.20251436  0.83971591  0.76007266  1  -1.473333  0  -0.482878  -0.873283  0  2.246567  0
O  O166  1  0.53071857  0.90778775  0.00506710  1  -1.464394  0  -0.467496  -0.907846  0  2.383929  0
O  O167  1  0.58913563  0.90790576  0.17349214  1  -1.475055  0  -0.404635  -0.801336  0  2.211023  0
O  O168  1  0.39365355  0.73433620  0.03657744  1  -1.47622  0  -0.440167  -0.838889  0  2.315413  0
O  O169  1  0.89008399  0.55832685  0.23519925  1  -1.158417  0  -0.326271  -0.557235  0  2.168328  0
O  O170  1  0.72245533  0.50524907  0.11396335  1  -1.20102  0  -0.36182  -0.640851  0  2.252814  0
O  O171  1  0.69160569  0.32876155  0.19405611  1  -1.212125  0  -0.399043  -0.726779  0  2.357548  0
O  O172  1  0.51227406  0.26993849  0.20629222  1  -1.176961  0  -0.326294  -0.574331  0  2.168651  0
O  O173  1  0.80279813  0.40099159  0.92665214  1  -1.460939  0  -0.449698  -0.852981  0  2.231833  0
O  O174  1  0.98775001  0.53320087  0.90314392  1  -1.467137  0  -0.465523  -0.841687  0  2.294681  0
O  O175  1  0.93599221  0.31584032  0.86018350  1  -1.432097  0  -0.395013  -0.685014  0  2.184033  0
O  O176  1  0.38650215  0.79109252  0.49626702  1  -1.452511  0  -0.410798  -0.749266  0  2.221649  0
O  O177  1  0.37952622  0.82315178  0.67078984  1  -1.474063  0  -0.474345  -0.853308  0  2.252728  0
O  O178  1  0.18575832  0.73763530  0.51884522  1  -1.459362  0  -0.396254  -0.757869  0  2.12921  0
O  O179  1  0.70885612  0.13725529  0.04280896  1  -1.478497  0  -0.495171  -0.947724  0  2.474111  0
O  O180  1  0.81094018  0.18357366  0.92973524  1  -1.483824  0  -0.423776  -0.841452  0  2.277925  0
O  O181  1  0.59782327  0.01037953  0.85058068  1  -1.472749  0  -0.446354  -0.835029  0  2.23192  0
O  O182  1  0.92793434  0.31378274  0.18838967  1  -1.467769  0  -0.479456  -0.878466  0  2.264889  0
O  O183  1  0.96329264  0.13450321  0.17965534  1  -1.452491  0  -0.402448  -0.743151  0  2.166079  0
O  O184  1  0.79748650  0.16028078  0.23992503  1  -1.4733  0  -0.482927  -0.873288  0  2.246589  0
O  O185  1  0.46928040  0.09221165  0.99493037  1  -1.464391  0  -0.467553  -0.90788  0  2.383786  0
O  O186  1  0.41086618  0.09209808  0.82650778  1  -1.475056  0  -0.40461  -0.801289  0  2.211096  0
O  O187  1  0.60634702  0.26566498  0.96342283  1  -1.476217  0  -0.440196  -0.838961  0  2.315437  0
