# generated using pymatgen
data_CoH12C18N2(ClO3)2
_symmetry_space_group_name_H-M   'P 1'
_cell_length_a   5.02109591
_cell_length_b   7.97206172
_cell_length_c   11.20325906
_cell_angle_alpha   83.09538148
_cell_angle_beta   82.73251811
_cell_angle_gamma   81.34200232
_symmetry_Int_Tables_number   1
_chemical_formula_structural   CoH12C18N2(ClO3)2
_chemical_formula_sum   'Co1 H12 C18 N2 Cl2 O6'
_cell_volume   437.43087529
_cell_formula_units_Z   1
loop_
 _symmetry_equiv_pos_site_id
 _symmetry_equiv_pos_as_xyz
  1  'x, y, z'
loop_
 _atom_site_type_symbol
 _atom_site_label
 _atom_site_symmetry_multiplicity
 _atom_site_fract_x
 _atom_site_fract_y
 _atom_site_fract_z
 _atom_site_occupancy
 _atom_site_pbe_cm5_charge
 _atom_site_pbe_ddec_charge
 _atom_site_pbe_ddec_spin_density
 _atom_site_pbe_ddec_sum_bond_order
 _atom_site_pbe_magmom
Co  Co0  1  0.99999929  0.49999744  0.50000174  1  0.670662  1.060767  2.903497  2.311787  2.672
H  H1  1  0.67269354  0.50398889  0.71967454  1  0.28401  0.347342  0.000996  1.0109  0.003
H  H2  1  0.32730677  0.49600993  0.28032578  1  0.284017  0.347345  0.000996  1.010902  0.003
H  H3  1  0.50273075  0.57908509  0.60980376  1  0.293709  0.3874  5.3e-05  0.950681  0.001
H  H4  1  0.49726865  0.42090864  0.39019615  1  0.29372  0.387426  5.3e-05  0.950645  0.001
H  H5  1  0.99690967  0.13965687  0.84885852  1  0.10214  0.103955  1.3e-05  1.001675  0.0
H  H6  1  0.00308385  0.86034580  0.15113738  1  0.102161  0.103975  1.3e-05  1.001729  0.0
H  H7  1  0.35935691  0.30774468  0.75754493  1  0.108377  0.129887  0.000133  1.034882  0.0
H  H8  1  0.64064005  0.69226053  0.24245325  1  0.108398  0.129901  0.000133  1.034922  0.0
H  H9  1  0.96741322  0.69895485  0.79950237  1  0.104204  0.120902  6e-06  1.023588  0.0
H  H10  1  0.03258884  0.30104525  0.20049686  1  0.10419  0.120886  7e-06  1.023589  0.0
H  H11  1  0.83613817  0.13357919  0.06920745  1  0.093156  0.087875  3e-05  1.048849  0.0
H  H12  1  0.16386107  0.86642474  0.93079160  1  0.093139  0.087842  3e-05  1.04888  0.0
C  C13  1  0.09800847  0.13638951  0.54699479  1  0.111488  0.247829  -0.0311  4.110826  -0.018
C  C14  1  0.90200268  0.86360546  0.45300705  1  0.111511  0.247879  -0.031097  4.110856  -0.018
C  C15  1  0.89877391  0.17062955  0.45327276  1  0.100767  0.224232  -0.031437  4.124585  -0.018
C  C16  1  0.10123094  0.82936671  0.54672931  1  0.100787  0.224293  -0.031442  4.12463  -0.018
C  C17  1  0.80860448  0.03416536  0.41047391  1  -0.039504  -0.138171  0.012998  4.076925  0.019
C  C18  1  0.19140237  0.96583089  0.58952895  1  -0.039499  -0.138113  0.012998  4.076959  0.019
C  C19  1  0.08994192  0.21103800  0.90546977  1  -0.084148  -0.057151  -8.8e-05  3.986766  0.0
C  C20  1  0.91005385  0.78896338  0.09452880  1  -0.084201  -0.057324  -8.8e-05  3.986986  0.0
C  C21  1  0.29039352  0.30496521  0.85382859  1  -0.086282  -0.155174  0.00023  3.923476  0.0
C  C22  1  0.70959969  0.69503873  0.14617079  1  -0.086269  -0.155094  0.00023  3.923622  0.0
C  C23  1  0.40396895  0.40433872  0.92636924  1  0.120717  0.169268  0.000159  3.997309  0.0
C  C24  1  0.59602600  0.59566649  0.07362994  1  0.120693  0.169228  0.000159  3.997316  0.0
C  C25  1  0.69059133  0.59811247  0.94574020  1  0.119709  0.162908  0.000103  4.017397  0.0
C  C26  1  0.30940763  0.40189273  0.05425877  1  0.119734  0.162984  0.000103  4.017434  0.0
C  C27  1  0.89478039  0.70020417  0.89539390  1  -0.089993  -0.158081  7.3e-05  3.950003  0.0
C  C28  1  0.10521886  0.29979976  0.10460337  1  -0.090065  -0.158209  7.3e-05  3.950204  0.0
C  C29  1  0.99774401  0.20775054  0.03104692  1  -0.087117  -0.069079  -2.6e-05  3.996311  0.0
C  C30  1  0.00225324  0.79225339  0.96894956  1  -0.087153  -0.069054  -2.6e-05  3.996246  0.0
N  N31  1  0.59278186  0.50226312  0.87522799  1  -0.278304  -0.271115  0.001509  3.342072  0.002
N  N32  1  0.40721509  0.49774208  0.12477198  1  -0.278286  -0.271108  0.001509  3.341967  0.002
Cl  Cl33  1  0.57657680  0.07277030  0.30555216  1  0.023692  -0.013156  0.00235  1.706741  0.002
Cl  Cl34  1  0.42341937  0.92721961  0.69445003  1  0.023708  -0.013169  0.00235  1.706825  0.002
O  O35  1  0.17009785  0.26661601  0.58202818  1  -0.266523  -0.414242  0.026854  2.336563  0.051
O  O36  1  0.82991017  0.73338407  0.41797607  1  -0.26657  -0.4143  0.026848  2.336684  0.051
O  O37  1  0.82631720  0.32901757  0.41865958  1  -0.283596  -0.457569  0.030245  2.396718  0.051
O  O38  1  0.17368165  0.67097870  0.58134103  1  -0.283619  -0.457616  0.030243  2.396772  0.051
O  O39  1  0.67180904  0.50516988  0.62959011  1  -0.58177  -0.778182  0.035154  2.238454  0.054
O  O40  1  0.32818834  0.49482385  0.37041080  1  -0.581791  -0.778217  0.035155  2.238487  0.054
