# generated using pymatgen
data_MnH8C12(NO2)2
_symmetry_space_group_name_H-M   'P 1'
_cell_length_a   7.87111735
_cell_length_b   8.75407500
_cell_length_c   16.69893792
_cell_angle_alpha   89.99995335
_cell_angle_beta   90.00005789
_cell_angle_gamma   100.65764097
_symmetry_Int_Tables_number   1
_chemical_formula_structural   MnH8C12(NO2)2
_chemical_formula_sum   'Mn4 H32 C48 N8 O16'
_cell_volume   1130.78089118
_cell_formula_units_Z   4
loop_
 _symmetry_equiv_pos_site_id
 _symmetry_equiv_pos_as_xyz
  1  'x, y, z'
loop_
 _atom_site_type_symbol
 _atom_site_label
 _atom_site_symmetry_multiplicity
 _atom_site_fract_x
 _atom_site_fract_y
 _atom_site_fract_z
 _atom_site_occupancy
 _atom_site_hle17_ddec_charge
 _atom_site_hle17_ddec_spin_density
 _atom_site_hle17_ddec_sum_bond_order
 _atom_site_hle17_magmom
 _atom_site_hse06_10hf_ddec_charge
 _atom_site_hse06_10hf_ddec_spin_density
 _atom_site_hse06_10hf_ddec_sum_bond_order
 _atom_site_hse06_10hf_magmom
 _atom_site_hse06_ddec_charge
 _atom_site_hse06_ddec_spin_density
 _atom_site_hse06_ddec_sum_bond_order
 _atom_site_hse06_magmom
 _atom_site_pbe_cm5_charge
 _atom_site_pbe_ddec_charge
 _atom_site_pbe_ddec_spin_density
 _atom_site_pbe_ddec_sum_bond_order
 _atom_site_pbe_magmom
Mn  Mn0  1  0.53779976  0.16684941  0.21077817  1  1.204757  4.78275  1.784674  4.649  1.040453  4.703168  2.320211  4.492  1.103461  4.754113  2.237201  4.567  0.630302  0.992333  4.647739  2.381968  4.414
Mn  Mn1  1  0.96219862  0.83315034  0.71077639  1  1.204815  4.782733  1.784593  4.649  1.040527  4.703152  2.320103  4.492  1.103549  4.754097  2.237067  4.567  0.630332  0.99241  4.64772  2.381879  4.414
Mn  Mn2  1  0.46220007  0.83315304  0.78922318  1  1.204814  4.782756  1.784603  4.649  1.040491  4.703184  2.320126  4.492  1.103515  4.754125  2.237093  4.567  0.630313  0.992364  4.647766  2.381891  4.414
Mn  Mn3  1  0.03780097  0.16685095  0.28922376  1  1.204792  4.782711  1.784703  4.649  1.040464  4.703128  2.320241  4.492  1.103475  4.754077  2.237225  4.567  0.630307  0.992343  4.647696  2.382001  4.414
H  H4  1  0.15413690  0.12749009  0.82460754  1  0.110212  -0.000683  0.958545  0.0  0.117571  -0.000456  1.027156  0.0  0.121457  -0.00052  1.023963  0.0  0.108484  0.114754  -0.00034  1.029424  0.0
H  H5  1  0.34586547  0.87251386  0.32460677  1  0.110195  -0.000674  0.958517  0.0  0.117573  -0.000456  1.027116  0.0  0.121453  -0.000521  1.023929  0.0  0.108488  0.114754  -0.00034  1.029386  0.0
H  H6  1  0.84586444  0.87251352  0.17539380  1  0.110246  -0.00067  0.958503  0.0  0.117583  -0.000456  1.027143  0.0  0.121434  -0.000521  1.02399  0.0  0.108496  0.114762  -0.00034  1.029414  0.0
H  H7  1  0.65413689  0.12748859  0.67539278  1  0.110194  -0.000666  0.958511  0.0  0.117585  -0.000456  1.027092  0.0  0.121471  -0.000521  1.023897  0.0  0.108487  0.114769  -0.00034  1.029362  0.0
H  H8  1  0.71611689  0.11379880  0.98018344  1  0.105511  -0.000601  0.956524  0.0  0.112814  -0.000358  1.024283  0.0  0.116637  -0.000459  1.020951  0.0  0.107669  0.110194  -0.00028  1.026356  0.0
H  H9  1  0.78388533  0.88619830  0.48018443  1  0.105513  -0.000602  0.956505  0.0  0.112805  -0.000359  1.024268  0.0  0.116626  -0.000459  1.02094  0.0  0.107647  0.110184  -0.00028  1.026348  0.0
H  H10  1  0.28388301  0.88619784  0.01981730  1  0.105535  -0.000587  0.95657  0.0  0.112829  -0.000359  1.024339  0.0  0.11665  -0.00046  1.021013  0.0  0.107672  0.11021  -0.000279  1.026414  0.0
H  H11  1  0.21611457  0.11379834  0.51981512  1  0.105546  -0.000593  0.956578  0.0  0.112844  -0.000358  1.024333  0.0  0.116665  -0.00046  1.021006  0.0  0.107707  0.11023  -0.000279  1.026411  0.0
H  H12  1  0.22763333  0.28010030  0.06980743  1  0.107597  -0.00083  0.963785  0.0  0.112389  -0.000662  1.034788  0.0  0.115612  -0.000724  1.033069  0.0  0.105675  0.109836  -0.000579  1.036599  0.0
H  H13  1  0.27236465  0.71989117  0.56980621  1  0.107589  -0.000834  0.96381  0.0  0.112396  -0.000663  1.03479  0.0  0.115624  -0.000724  1.033045  0.0  0.105705  0.109848  -0.00058  1.036598  0.0
H  H14  1  0.77236450  0.71989866  0.93019452  1  0.107554  -0.00084  0.96382  0.0  0.112359  -0.000663  1.03481  0.0  0.115582  -0.000724  1.033083  0.0  0.105676  0.109807  -0.00058  1.036617  0.0
H  H15  1  0.72763319  0.28010780  0.43019154  1  0.107659  -0.000841  0.963749  0.0  0.112452  -0.000663  1.034746  0.0  0.115681  -0.000724  1.033006  0.0  0.105729  0.109902  -0.00058  1.036553  0.0
H  H16  1  0.46961906  0.25893046  0.99178648  1  0.085195  -0.000118  0.927311  0.0  0.097176  9e-06  0.995626  0.0  0.098312  -5.9e-05  0.994029  0.0  0.112806  0.096387  4.9e-05  0.996699  0.0
H  H17  1  0.03038219  0.74106631  0.49178502  1  0.085182  -0.000111  0.927257  0.0  0.097192  9e-06  0.99557  0.0  0.098319  -6e-05  0.993968  0.0  0.112824  0.096408  4.8e-05  0.996645  0.0
H  H18  1  0.53038259  0.74106850  0.00821546  1  0.085114  -0.000122  0.927292  0.0  0.097151  9e-06  0.995577  0.0  0.098278  -5.9e-05  0.993974  0.0  0.1128  0.096361  4.9e-05  0.996651  0.0
H  H19  1  0.96961946  0.25893266  0.50821274  1  0.085178  -0.000124  0.927317  0.0  0.097163  9e-06  0.995618  0.0  0.098301  -5.9e-05  0.994022  0.0  0.112795  0.096375  4.9e-05  0.996694  0.0
H  H20  1  0.44216303  0.13474637  0.90690506  1  0.113362  -0.000524  0.916948  0.0  0.127603  -0.000455  0.977149  0.0  0.129191  -0.000531  0.975856  0.0  0.125908  0.126325  -0.000383  0.978268  0.0
H  H21  1  0.05784084  0.86525166  0.40690415  1  0.113377  -0.000535  0.916884  0.0  0.127591  -0.000455  0.97716  0.0  0.129169  -0.000531  0.975863  0.0  0.125924  0.126321  -0.000384  0.978284  0.0
H  H22  1  0.55783886  0.86525376  0.09309748  1  0.11336  -0.000535  0.916886  0.0  0.127585  -0.000454  0.977152  0.0  0.129163  -0.000531  0.975855  0.0  0.125897  0.126309  -0.000383  0.978275  0.0
H  H23  1  0.94216104  0.13474846  0.59309360  1  0.1134  -0.00054  0.916899  0.0  0.127608  -0.000454  0.977138  0.0  0.129196  -0.000531  0.975847  0.0  0.12593  0.126335  -0.000383  0.978267  0.0
H  H24  1  0.34284515  0.54758677  0.92759608  1  0.09779  -0.000634  0.944121  0.0  0.107125  -0.000349  1.006435  0.0  0.109508  -0.000398  1.004143  0.0  0.135124  0.105099  -0.000273  1.008637  0.0
H  H25  1  0.15715519  0.45241240  0.42759420  1  0.097788  -0.000638  0.944123  0.0  0.107119  -0.000349  1.006433  0.0  0.109502  -0.000397  1.00414  0.0  0.135125  0.105092  -0.000274  1.008633  0.0
H  H26  1  0.65715420  0.45241335  0.07240586  1  0.097789  -0.000637  0.944129  0.0  0.107113  -0.000349  1.006448  0.0  0.109495  -0.000397  1.004158  0.0  0.135124  0.105089  -0.000274  1.008644  0.0
H  H27  1  0.84284797  0.54758772  0.57240475  1  0.097777  -0.00064  0.944138  0.0  0.107118  -0.000349  1.006439  0.0  0.109501  -0.000397  1.004148  0.0  0.135127  0.105094  -0.000274  1.008642  0.0
H  H28  1  0.67513232  0.55445986  0.72919612  1  0.097922  0.00092  0.982517  0.0  0.10386  0.002206  1.050192  0.0  0.106399  0.001755  1.048585  0.0  0.117321  0.10195  0.002601  1.051577  0.0
H  H29  1  0.82486967  0.44553870  0.22919492  1  0.097943  0.000935  0.982511  0.0  0.103895  0.002206  1.050175  0.0  0.106435  0.001755  1.048568  0.0  0.117324  0.101985  0.002601  1.051551  0.0
H  H30  1  0.32486679  0.44553910  0.27080403  1  0.097959  0.000894  0.982508  0.0  0.10392  0.002205  1.05016  0.0  0.106458  0.001755  1.048554  0.0  0.117332  0.102011  0.002601  1.051536  0.0
H  H31  1  0.17513023  0.55445794  0.77080343  1  0.097978  0.000895  0.982513  0.0  0.103926  0.002205  1.050174  0.0  0.106464  0.001755  1.048567  0.0  0.11735  0.102019  0.002601  1.051558  0.0
H  H32  1  0.62116471  0.25935699  0.79848321  1  0.123444  -0.000227  0.969923  0.0  0.13161  -0.000196  1.033313  0.0  0.134049  -0.0003  1.032195  0.0  0.12453  0.129588  6e-06  1.034711  0.0
H  H33  1  0.87883208  0.74064033  0.29848251  1  0.123475  -0.000223  0.969873  0.0  0.131642  -0.000196  1.033254  0.0  0.134081  -0.000299  1.032133  0.0  0.124542  0.129622  7e-06  1.034658  0.0
H  H34  1  0.37883440  0.74064197  0.20151814  1  0.123501  -0.000232  0.969859  0.0  0.131655  -0.000196  1.03325  0.0  0.134094  -0.000299  1.032133  0.0  0.124538  0.129634  7e-06  1.034645  0.0
H  H35  1  0.12116727  0.25935980  0.70151585  1  0.123446  -0.000228  0.96991  0.0  0.13161  -0.000197  1.033295  0.0  0.134049  -0.0003  1.032177  0.0  0.12454  0.129587  7e-06  1.034702  0.0
C  C36  1  0.21125785  0.21393885  0.94475410  1  0.057299  -0.004557  3.757994  -0.003  0.08193  -0.002456  4.002555  -0.002  0.077824  -0.003144  4.027014  -0.002  -0.013054  0.084715  -0.002465  3.986391  -0.002
C  C37  1  0.28874156  0.78605565  0.44475094  1  0.057329  -0.004616  3.757848  -0.003  0.081976  -0.002459  4.002464  -0.002  0.077852  -0.003141  4.026916  -0.002  -0.013059  0.084758  -0.002465  3.986306  -0.002
C  C38  1  0.78874125  0.78606011  0.05524844  1  0.057359  -0.004601  3.757789  -0.003  0.082008  -0.00246  4.002398  -0.002  0.077886  -0.003139  4.026838  -0.002  -0.013037  0.084789  -0.002464  3.986234  -0.002
C  C39  1  0.71125628  0.21394331  0.55524621  1  0.057268  -0.004665  3.758072  -0.003  0.081907  -0.00246  4.002636  -0.002  0.0778  -0.003145  4.027097  -0.002  -0.013064  0.08469  -0.002453  3.986482  -0.002
C  C40  1  0.10044107  0.15491355  0.88193512  1  -0.087648  0.005819  3.662885  0.005  -0.126799  0.006488  3.912818  0.005  -0.124047  0.005285  3.931486  0.005  -0.07485  -0.128833  0.009023  3.900731  0.007
C  C41  1  0.39956220  0.84508800  0.38193498  1  -0.087599  0.005842  3.662786  0.005  -0.126737  0.006489  3.912706  0.005  -0.123981  0.005281  3.931385  0.005  -0.074827  -0.128756  0.009022  3.900611  0.007
C  C42  1  0.89955852  0.84508774  0.11806622  1  -0.087725  0.005813  3.662769  0.005  -0.12685  0.00649  3.912714  0.005  -0.124074  0.005281  3.931405  0.005  -0.074891  -0.128877  0.009023  3.900625  0.007
C  C43  1  0.60043739  0.15491329  0.61806337  1  -0.087577  0.00588  3.662844  0.005  -0.126744  0.00649  3.91279  0.005  -0.123994  0.005285  3.931465  0.005  -0.074818  -0.128773  0.009014  3.900701  0.007
C  C44  1  0.92172540  0.11924532  0.89426844  1  -0.0794  -0.004198  3.776518  -0.003  -0.051417  -0.002544  4.012009  -0.002  -0.062841  -0.003656  4.036494  -0.002  -0.019433  -0.044147  -0.001517  3.996765  -0.001
C  C45  1  0.57827864  0.88075537  0.39426873  1  -0.079524  -0.004225  3.77654  -0.003  -0.05159  -0.002543  4.01208  -0.002  -0.063015  -0.003651  4.036565  -0.002  -0.019497  -0.044326  -0.001513  3.996844  -0.001
C  C46  1  0.07827521  0.88075481  0.10573290  1  -0.079385  -0.004205  3.776439  -0.003  -0.051419  -0.002546  4.011934  -0.002  -0.062841  -0.003652  4.036406  -0.002  -0.019437  -0.044151  -0.001514  3.996694  -0.001
C  C47  1  0.42172071  0.11924476  0.60573021  1  -0.079581  -0.004295  3.776663  -0.003  -0.051647  -0.002542  4.01222  -0.002  -0.063073  -0.003657  4.036706  -0.002  -0.019548  -0.044378  -0.001502  3.996988  -0.001
C  C48  1  0.85419700  0.14670689  0.96942470  1  -0.056709  0.005838  3.695366  0.005  -0.095434  0.006749  3.941459  0.006  -0.091204  0.005527  3.960146  0.005  -0.074589  -0.098576  0.008943  3.93008  0.007
C  C49  1  0.64580345  0.85328789  0.46942503  1  -0.056579  0.00586  3.695376  0.005  -0.095256  0.006748  3.941427  0.006  -0.091027  0.005523  3.960113  0.005  -0.074481  -0.098396  0.00894  3.930052  0.007
C  C50  1  0.14580362  0.85329323  0.03057665  1  -0.056674  0.005838  3.695487  0.005  -0.095385  0.006749  3.941564  0.006  -0.091157  0.005525  3.960253  0.005  -0.074546  -0.098527  0.008941  3.930192  0.007
C  C51  1  0.35419645  0.14670875  0.53057392  1  -0.05659  0.005882  3.69553  0.005  -0.095285  0.006746  3.941588  0.006  -0.091054  0.005528  3.960272  0.005  -0.074546  -0.098439  0.00893  3.93023  0.007
C  C52  1  0.96358055  0.20571213  0.03220882  1  -0.076132  -0.002286  3.775669  -0.001  -0.047735  -0.001037  4.005972  0.0  -0.058513  -0.002091  4.029842  -0.001  -0.020406  -0.040836  -0.000501  3.991255  0.0
C  C53  1  0.53641804  0.79428435  0.53220746  1  -0.076261  -0.002318  3.775455  -0.001  -0.047872  -0.001037  4.005772  0.0  -0.058654  -0.002089  4.02964  -0.001  -0.020525  -0.040968  -0.000499  3.99105  0.0
C  C54  1  0.03642086  0.79428567  0.96779372  1  -0.076165  -0.002335  3.775722  -0.001  -0.047757  -0.001036  4.006022  0.0  -0.058538  -0.002091  4.029891  -0.001  -0.02046  -0.040865  -0.0005  3.991322  0.0
C  C55  1  0.46357980  0.20571462  0.46779089  1  -0.076117  -0.002358  3.775555  -0.001  -0.047725  -0.001035  4.005849  0.0  -0.058502  -0.002094  4.029722  -0.001  -0.020426  -0.040822  -0.000491  3.991139  0.0
C  C56  1  0.14270431  0.23987089  0.01949404  1  -0.09539  0.005595  3.687235  0.005  -0.130159  0.006453  3.931631  0.005  -0.127483  0.00518  3.950438  0.004  -0.077758  -0.132857  0.009265  3.920635  0.007
C  C57  1  0.35729231  0.76012064  0.51949224  1  -0.095367  0.005642  3.686963  0.005  -0.130153  0.006455  3.931385  0.005  -0.127463  0.005179  3.950189  0.004  -0.077707  -0.132854  0.009266  3.920396  0.007
C  C58  1  0.85729583  0.76012691  0.98050791  1  -0.095398  0.005651  3.687127  0.005  -0.130187  0.006455  3.931549  0.005  -0.1275  0.005178  3.950353  0.004  -0.07775  -0.132885  0.009266  3.920559  0.007
C  C59  1  0.64270656  0.23987716  0.48050611  1  -0.09545  0.00568  3.687246  0.005  -0.130224  0.006454  3.931651  0.005  -0.127544  0.005182  3.950459  0.004  -0.077778  -0.132928  0.009259  3.920663  0.007
C  C60  1  0.40433708  0.23810420  0.93357199  1  -0.043852  0.000613  3.628714  0.001  -0.111685  0.000729  3.877238  0.001  -0.106427  0.000502  3.886673  0.001  -0.043814  -0.115111  0.001019  3.870633  0.001
C  C61  1  0.09566455  0.76189496  0.43357055  1  -0.043757  0.00061  3.628475  0.001  -0.111664  0.000729  3.877154  0.001  -0.10636  0.000503  3.886532  0.001  -0.043831  -0.115089  0.001018  3.870554  0.001
C  C62  1  0.59566378  0.76189708  0.06642995  1  -0.043696  0.000635  3.628476  0.001  -0.111632  0.000728  3.877138  0.001  -0.10632  0.000503  3.886505  0.001  -0.0438  -0.115054  0.001018  3.870531  0.001
C  C63  1  0.90433734  0.23810517  0.56642721  1  -0.04386  0.000642  3.628545  0.001  -0.111665  0.000728  3.877078  0.001  -0.106414  0.000503  3.886524  0.001  -0.043827  -0.115091  0.00102  3.870478  0.001
C  C64  1  0.43010925  0.51302064  0.88383884  1  0.142735  0.005439  3.681107  0.006  0.084359  0.007593  3.946522  0.007  0.09697  0.006487  3.961018  0.006  0.136737  0.076421  0.008433  3.935635  0.008
C  C65  1  0.06989203  0.48697742  0.38383690  1  0.142813  0.00545  3.681119  0.006  0.084456  0.007597  3.946518  0.007  0.097065  0.006488  3.961018  0.006  0.136778  0.076519  0.008435  3.935628  0.008
C  C66  1  0.56989112  0.48697832  0.11616191  1  0.142776  0.005448  3.68112  0.006  0.08441  0.007595  3.946526  0.007  0.097021  0.006489  3.961025  0.006  0.136734  0.076464  0.008438  3.935639  0.008
C  C67  1  0.93011113  0.51302270  0.61616085  1  0.142767  0.005457  3.681007  0.006  0.084407  0.007595  3.946407  0.007  0.097017  0.00649  3.960905  0.006  0.136751  0.076462  0.008428  3.935532  0.008
C  C68  1  0.60067756  0.51054149  0.78150662  1  0.010626  0.001921  3.750103  0.003  -0.019738  0.004631  4.013418  0.005  -0.01817  0.003733  4.034228  0.004  0.000903  -0.021142  0.005959  3.99942  0.005
C  C69  1  0.89932325  0.48945701  0.28150484  1  0.010679  0.001901  3.750171  0.003  -0.019683  0.004632  4.013459  0.005  -0.018115  0.003732  4.03427  0.004  0.000995  -0.021087  0.005968  3.999444  0.005
C  C70  1  0.39932028  0.48945748  0.21849412  1  0.010655  0.00202  3.750145  0.003  -0.019721  0.004632  4.013435  0.005  -0.018152  0.003734  4.034244  0.004  0.000937  -0.021129  0.005961  3.999426  0.005
C  C71  1  0.10067561  0.51054079  0.71849351  1  0.010526  0.00204  3.750134  0.003  -0.019852  0.004632  4.013453  0.005  -0.018283  0.003732  4.034262  0.004  0.000883  -0.021249  0.005952  3.999441  0.005
C  C72  1  0.57694515  0.36488596  0.81495189  1  -0.059262  -0.000924  3.656721  0.0  -0.09771  -1.4e-05  3.905741  0.0  -0.096814  -0.000644  3.926415  0.0  0.00277  -0.098134  0.000692  3.892055  0.001
C  C73  1  0.92305446  0.63511250  0.31495065  1  -0.059404  -0.000952  3.656792  0.0  -0.097852  -1.5e-05  3.90582  0.0  -0.096956  -0.000643  3.926497  0.0  0.002668  -0.098271  0.000684  3.892137  0.001
C  C74  1  0.42305523  0.63511300  0.18504946  1  -0.059424  -0.000983  3.656832  0.0  -0.09787  -1.4e-05  3.905873  0.0  -0.096976  -0.000646  3.926552  0.0  0.002687  -0.098295  0.000693  3.892188  0.001
C  C75  1  0.07694719  0.36488646  0.68504710  1  -0.059212  -0.001032  3.656664  0.0  -0.097651  -1.4e-05  3.905692  0.0  -0.096753  -0.000646  3.926363  0.0  0.002771  -0.098074  0.000698  3.892007  0.001
C  C76  1  0.80461307  0.03546839  0.83154289  1  0.667409  0.017735  3.883879  0.017  0.611633  0.028218  4.179075  0.024  0.649997  0.021187  4.170082  0.019  0.223294  0.583892  0.036496  4.18536  0.031
C  C77  1  0.69538976  0.96453935  0.33154440  1  0.667583  0.017737  3.883536  0.017  0.611844  0.028216  4.178687  0.024  0.650209  0.021189  4.169688  0.019  0.22341  0.584105  0.036499  4.184972  0.031
C  C78  1  0.19538954  0.96453522  0.16845726  1  0.667432  0.017743  3.883845  0.017  0.611689  0.02822  4.178997  0.024  0.650054  0.02119  4.169999  0.019  0.223366  0.583943  0.036501  4.185293  0.031
C  C79  1  0.30461007  0.03546310  0.66845635  1  0.66755  0.017748  3.8836  0.017  0.611809  0.028213  4.178761  0.024  0.650173  0.021186  4.169766  0.019  0.223392  0.584069  0.036494  4.185044  0.031
C  C80  1  0.89151674  0.21514955  0.11478232  1  0.67946  0.011744  3.880146  0.013  0.628141  0.018916  4.166587  0.018  0.665327  0.014513  4.159189  0.015  0.229034  0.602049  0.023594  4.17034  0.022
C  C81  1  0.60848479  0.78484799  0.61478518  1  0.679458  0.011738  3.880025  0.013  0.628176  0.018917  4.166442  0.018  0.665361  0.014514  4.159048  0.015  0.229085  0.602093  0.023594  4.170184  0.022
C  C82  1  0.10848213  0.78484826  0.88521783  1  0.6794  0.01175  3.880155  0.013  0.628072  0.018913  4.166609  0.018  0.665258  0.014512  4.159214  0.015  0.22901  0.601989  0.023592  4.170352  0.022
C  C83  1  0.39151758  0.21515446  0.38521496  1  0.679361  0.01175  3.880265  0.013  0.62807  0.01892  4.166675  0.018  0.665249  0.014518  4.159295  0.015  0.229068  0.601981  0.023601  4.17042  0.022
N  N84  1  0.46852320  0.36833011  0.87966256  1  -0.055096  0.001478  3.570331  0.002  0.041208  0.003318  3.785156  0.003  0.026141  0.002555  3.812032  0.003  -0.23993  0.051512  0.003718  3.766271  0.004
N  N85  1  0.03147656  0.63166679  0.37966114  1  -0.055174  0.001491  3.57044  0.002  0.041164  0.003318  3.785268  0.003  0.026083  0.002557  3.812133  0.003  -0.239916  0.051455  0.003719  3.766393  0.004
N  N86  1  0.53147820  0.63166768  0.12033998  1  -0.055153  0.001489  3.570439  0.002  0.041211  0.003318  3.78524  0.003  0.026129  0.002556  3.812106  0.003  -0.239886  0.051516  0.003719  3.766355  0.004
N  N87  1  0.96852484  0.36833101  0.62033781  1  -0.055116  0.001498  3.570206  0.002  0.041177  0.003317  3.785025  0.003  0.026112  0.002555  3.811901  0.003  -0.239951  0.051483  0.003721  3.766142  0.004
N  N88  1  0.50841500  0.60228180  0.82480933  1  -0.409418  0.028554  3.262576  0.013  -0.341942  0.032882  3.562276  0.013  -0.36346  0.02918  3.57507  0.01  -0.348356  -0.325904  0.036101  3.553066  0.015
N  N89  1  0.99158311  0.39771549  0.32480584  1  -0.409443  0.028556  3.262673  0.013  -0.34198  0.032882  3.56238  0.013  -0.363498  0.02918  3.575177  0.01  -0.348419  -0.32594  0.036102  3.553157  0.015
N  N90  1  0.49158236  0.39771484  0.17519261  1  -0.409434  0.028528  3.262598  0.013  -0.341953  0.032882  3.562288  0.013  -0.36347  0.029177  3.57508  0.01  -0.348356  -0.325904  0.036102  3.553061  0.015
N  N91  1  0.00841751  0.60228464  0.67519191  1  -0.409426  0.028526  3.262557  0.013  -0.341949  0.032882  3.562255  0.013  -0.363468  0.029179  3.57505  0.01  -0.348355  -0.325912  0.036105  3.553048  0.015
O  O92  1  0.86285065  0.02080594  0.76128215  1  -0.667682  0.028316  2.057461  0.014  -0.605622  0.038594  2.343837  0.021  -0.636209  0.033513  2.326048  0.016  -0.31566  -0.582553  0.043338  2.355772  0.024
O  O93  1  0.63715459  0.97920188  0.26128362  1  -0.667784  0.02831  2.057367  0.014  -0.605755  0.038599  2.343787  0.021  -0.636337  0.033515  2.325985  0.016  -0.315736  -0.582681  0.04334  2.355719  0.024
O  O94  1  0.13714815  0.97919768  0.23871860  1  -0.667686  0.02831  2.057462  0.014  -0.605638  0.038594  2.343847  0.021  -0.636222  0.033511  2.326048  0.016  -0.315693  -0.582562  0.043335  2.355781  0.024
O  O95  1  0.36284596  0.02080405  0.73871712  1  -0.667799  0.028309  2.057411  0.014  -0.605739  0.038598  2.343783  0.021  -0.636324  0.033516  2.325989  0.016  -0.315746  -0.582659  0.043339  2.355708  0.024
O  O96  1  0.64899596  0.98052214  0.85315660  1  -0.649637  0.04463  2.047825  0.031  -0.580764  0.054408  2.328328  0.036  -0.61233  0.046284  2.310374  0.029  -0.312077  -0.557412  0.06349  2.341199  0.045
O  O97  1  0.85100564  0.01948557  0.35315859  1  -0.649752  0.044636  2.047917  0.031  -0.580874  0.054411  2.328387  0.036  -0.61244  0.046289  2.310436  0.029  -0.312114  -0.55752  0.063491  2.341256  0.045
O  O98  1  0.35100514  0.01948031  0.14684355  1  -0.649662  0.044628  2.047946  0.031  -0.580795  0.054409  2.328436  0.036  -0.612356  0.046287  2.310479  0.029  -0.312098  -0.557446  0.06349  2.341314  0.045
O  O99  1  0.14899546  0.98051688  0.64684156  1  -0.649686  0.044625  2.047846  0.031  -0.580842  0.05441  2.328349  0.036  -0.612409  0.046287  2.310396  0.029  -0.312081  -0.557494  0.063491  2.341225  0.045
O  O100  1  0.72785169  0.20106978  0.12131803  1  -0.661854  0.0378  2.066177  0.025  -0.595162  0.047003  2.347549  0.03  -0.627178  0.041117  2.330828  0.025  -0.311336  -0.570862  0.05322  2.357999  0.036
O  O101  1  0.77215136  0.79892892  0.62131977  1  -0.661849  0.037813  2.066088  0.025  -0.595211  0.047007  2.34751  0.03  -0.627228  0.041123  2.330785  0.025  -0.311383  -0.570919  0.053225  2.357972  0.036
O  O102  1  0.27214693  0.79892686  0.87868332  1  -0.661847  0.037803  2.066193  0.025  -0.595143  0.047003  2.347572  0.03  -0.627161  0.041117  2.330852  0.025  -0.311319  -0.570846  0.053219  2.35802  0.036
O  O103  1  0.22784871  0.20107470  0.37867799  1  -0.6619  0.037813  2.066253  0.025  -0.595199  0.04701  2.347619  0.03  -0.627213  0.041124  2.330898  0.025  -0.311397  -0.570903  0.053226  2.358074  0.036
O  O104  1  0.99859823  0.23475896  0.17252134  1  -0.661273  0.036472  2.095794  0.021  -0.593725  0.047163  2.381408  0.027  -0.626241  0.041593  2.36481  0.022  -0.309318  -0.56872  0.052646  2.391692  0.032
O  O105  1  0.50140087  0.76523851  0.67252117  1  -0.661233  0.036465  2.095886  0.021  -0.593706  0.047163  2.381488  0.027  -0.626227  0.041592  2.364896  0.022  -0.309316  -0.568701  0.052644  2.391775  0.032
O  O106  1  0.00140112  0.76524117  0.82747941  1  -0.661229  0.036466  2.095775  0.021  -0.5937  0.047164  2.381403  0.027  -0.626219  0.041593  2.364808  0.022  -0.309313  -0.568696  0.052646  2.391684  0.032
O  O107  1  0.49860023  0.23476394  0.32747838  1  -0.661124  0.036461  2.095897  0.021  -0.593647  0.047166  2.381583  0.027  -0.626151  0.041594  2.364965  0.022  -0.309309  -0.568643  0.052648  2.391865  0.032
