# generated using pymatgen
data_ZnB4H10C3N2O7
_symmetry_space_group_name_H-M   'P 1'
_cell_length_a   8.60356534
_cell_length_b   8.60352256
_cell_length_c   12.64251046
_cell_angle_alpha   89.99997785
_cell_angle_beta   89.99985112
_cell_angle_gamma   90.00009732
_symmetry_Int_Tables_number   1
_chemical_formula_structural   ZnB4H10C3N2O7
_chemical_formula_sum   'Zn4 B16 H40 C12 N8 O28'
_cell_volume   935.81086924
_cell_formula_units_Z   4
loop_
 _symmetry_equiv_pos_site_id
 _symmetry_equiv_pos_as_xyz
  1  'x, y, z'
loop_
 _atom_site_type_symbol
 _atom_site_label
 _atom_site_symmetry_multiplicity
 _atom_site_fract_x
 _atom_site_fract_y
 _atom_site_fract_z
 _atom_site_occupancy
 _atom_site_hle17_bader_spin_density
 _atom_site_hle17_ddec_charge
 _atom_site_hle17_ddec_spin_density
 _atom_site_hle17_ddec_sum_bond_order
 _atom_site_hle17_magmom
 _atom_site_hse06_10hf_bader_spin_density
 _atom_site_hse06_10hf_ddec_charge
 _atom_site_hse06_10hf_ddec_spin_density
 _atom_site_hse06_10hf_ddec_sum_bond_order
 _atom_site_hse06_10hf_magmom
 _atom_site_hse06_bader_spin_density
 _atom_site_hse06_ddec_charge
 _atom_site_hse06_ddec_spin_density
 _atom_site_hse06_ddec_sum_bond_order
 _atom_site_hse06_magmom
 _atom_site_pbe_bader_spin_density
 _atom_site_pbe_cm5_charge
 _atom_site_pbe_ddec_charge
 _atom_site_pbe_ddec_spin_density
 _atom_site_pbe_ddec_sum_bond_order
 _atom_site_pbe_magmom
Zn  Zn0  1  0.57250268  0.57250320  0.00000021  1  0  1.116438  0  1.710078  0  0  0.932996  0  2.16204  0  0  0.974769  0  2.111869  0  0  0.763131  0.903367  0  2.196605  0
Zn  Zn1  1  0.42749660  0.42749721  0.49999994  1  0  1.116468  0  1.710128  0  0  0.93303  0  2.162014  0  0  0.974801  0  2.111843  0  0  0.763139  0.903398  0  2.196581  0
Zn  Zn2  1  0.92749783  0.07250227  0.74999974  1  0  1.116467  0  1.71009  0  0  0.933034  0  2.162014  0  0  0.9748  0  2.111838  0  0  0.763138  0.903395  0  2.196578  0
Zn  Zn3  1  0.07250165  0.92749799  0.25000000  1  0  1.116522  0  1.710044  0  0  0.93308  0  2.16195  0  0  0.974839  0  2.11178  0  0  0.763163  0.903426  0  2.19652  0
B  B4  1  0.54117007  0.75039769  0.21041254  1  0  1.167581  0  2.874622  0  0  1.007229  0  3.202915  0  0  1.049896  0  3.159924  0  0  0.115486  0.976354  0  3.234403  0
B  B5  1  0.45883654  0.24960609  0.71041305  1  0  1.167635  0  2.874572  0  0  1.007288  0  3.202811  0  0  1.049981  0  3.159748  0  0  0.11552  0.976405  0  3.234315  0
B  B6  1  0.74960488  0.04116606  0.96041380  1  0  1.167597  0  2.87461  0  0  1.007263  0  3.202849  0  0  1.04995  0  3.159791  0  0  0.115507  0.97638  0  3.234356  0
B  B7  1  0.25039496  0.95883525  0.46041216  1  0  1.167532  0  2.874705  0  0  1.007195  0  3.202944  0  0  1.04987  0  3.159936  0  0  0.115455  0.97631  0  3.234453  0
B  B8  1  0.95883191  0.25039694  0.53958578  1  0  1.167631  0  2.874537  0  0  1.007277  0  3.202847  0  0  1.049956  0  3.159802  0  0  0.115496  0.976406  0  3.234331  0
B  B9  1  0.04116373  0.74960578  0.03958773  1  0  1.167656  0  2.874598  0  0  1.007321  0  3.202839  0  0  1.050013  0  3.159778  0  0  0.115506  0.976414  0  3.234351  0
B  B10  1  0.75039600  0.54116480  0.78958691  1  0  1.167591  0  2.874623  0  0  1.007258  0  3.202856  0  0  1.049948  0  3.159795  0  0  0.115513  0.976377  0  3.234357  0
B  B11  1  0.24960333  0.45883196  0.28958698  1  0  1.167524  0  2.874666  0  0  1.007181  0  3.202966  0  0  1.049846  0  3.159979  0  0  0.115449  0.976306  0  3.234458  0
B  B12  1  0.77611133  0.83038028  0.09346719  1  0  1.222668  0  2.747225  0  0  1.051739  0  3.085635  0  0  1.084924  0  3.058955  0  0  0.081143  1.02836  0  3.10455  0
B  B13  1  0.22388875  0.16962124  0.59346735  1  0  1.222563  0  2.747474  0  0  1.051559  0  3.086057  0  0  1.08473  0  3.059411  0  0  0.081082  1.028201  0  3.104956  0
B  B14  1  0.66961985  0.27611049  0.84346634  1  0  1.222633  0  2.747267  0  0  1.051682  0  3.085728  0  0  1.084868  0  3.059043  0  0  0.081131  1.028325  0  3.104627  0
B  B15  1  0.33038043  0.72388972  0.34346700  1  0  1.222619  0  2.747295  0  0  1.051687  0  3.085719  0  0  1.08487  0  3.05903  0  0  0.081125  1.02833  0  3.104617  0
B  B16  1  0.72388846  0.33038022  0.65653269  1  0  1.222639  0  2.747228  0  0  1.051704  0  3.085653  0  0  1.084889  0  3.058973  0  0  0.08114  1.028344  0  3.104554  0
B  B17  1  0.27611022  0.66962010  0.15653266  1  0  1.222599  0  2.747405  0  0  1.051611  0  3.085961  0  0  1.084782  0  3.059315  0  0  0.081116  1.02825  0  3.104864  0
B  B18  1  0.83038025  0.77611046  0.90653351  1  0  1.222618  0  2.747361  0  0  1.051619  0  3.085945  0  0  1.084792  0  3.059299  0  0  0.081123  1.02826  0  3.104845  0
B  B19  1  0.16961979  0.22388972  0.40653300  1  0  1.222647  0  2.747269  0  0  1.051719  0  3.085684  0  0  1.084898  0  3.059005  0  0  0.081142  1.028359  0  3.104586  0
H  H20  1  0.60245504  0.29243537  0.05288608  1  0  0.316896  0  0.913272  0  0  0.303279  0  0.968369  0  0  0.310396  0  0.963549  0  0  0.302777  0.298205  0  0.971689  0
H  H21  1  0.39754520  0.70756036  0.55288737  1  0  0.316968  0  0.913251  0  0  0.303331  0  0.968356  0  0  0.310448  0  0.963537  0  0  0.302829  0.29826  0  0.971671  0
H  H22  1  0.20757180  0.10245682  0.80288306  1  0  0.317037  0  0.912905  0  0  0.3034  0  0.968042  0  0  0.310519  0  0.963218  0  0  0.302756  0.298328  0  0.971355  0
H  H23  1  0.79242399  0.89754226  0.30288127  1  0  0.317066  0  0.912878  0  0  0.303409  0  0.968034  0  0  0.310529  0  0.963205  0  0  0.302719  0.298334  0  0.971354  0
H  H24  1  0.89754468  0.79243412  0.69711460  1  0  0.316871  0  0.913219  0  0  0.303257  0  0.968318  0  0  0.310374  0  0.963497  0  0  0.302767  0.298183  0  0.971636  0
H  H25  1  0.10245616  0.20756501  0.19711421  1  0  0.316914  0  0.913236  0  0  0.3033  0  0.968322  0  0  0.310419  0  0.963501  0  0  0.30281  0.298227  0  0.971641  0
H  H26  1  0.29243212  0.60245554  0.94711535  1  0  0.316959  0  0.913057  0  0  0.303338  0  0.968181  0  0  0.310456  0  0.963363  0  0  0.302795  0.298266  0  0.971495  0
H  H27  1  0.70757126  0.39754345  0.44711701  1  0  0.317058  0  0.912883  0  0  0.303402  0  0.968052  0  0  0.310522  0  0.96323  0  0  0.302768  0.29833  0  0.971365  0
H  H28  1  0.49119409  0.38657692  0.14219596  1  0  0.291333  0  0.917003  0  0  0.28089  0  0.973358  0  0  0.286257  0  0.970483  0  0  0.299525  0.27704  0  0.97563  0
H  H29  1  0.50881045  0.61342225  0.64219787  1  0  0.291186  0  0.917025  0  0  0.280646  0  0.973506  0  0  0.286014  0  0.970635  0  0  0.299405  0.276795  0  0.975775  0
H  H30  1  0.11342421  0.99120199  0.89219203  1  0  0.291751  0  0.917114  0  0  0.281083  0  0.973677  0  0  0.286447  0  0.970803  0  0  0.29965  0.277232  0  0.97595  0
H  H31  1  0.88657589  0.00879355  0.39219031  1  0  0.291914  0  0.917304  0  0  0.281256  0  0.973808  0  0  0.286622  0  0.97093  0  0  0.299738  0.277406  0  0.976082  0
H  H32  1  0.00880408  0.88657507  0.60780400  1  0  0.29141  0  0.91695  0  0  0.280866  0  0.973441  0  0  0.286234  0  0.970565  0  0  0.299502  0.277016  0  0.975712  0
H  H33  1  0.99119478  0.11342412  0.10780286  1  0  0.291278  0  0.917004  0  0  0.280698  0  0.973541  0  0  0.286065  0  0.970669  0  0  0.299436  0.276848  0  0.975811  0
H  H34  1  0.38657689  0.49119773  0.85780628  1  0  0.291517  0  0.917142  0  0  0.281018  0  0.973542  0  0  0.286384  0  0.970666  0  0  0.299595  0.277167  0  0.975815  0
H  H35  1  0.61342335  0.50879783  0.35780807  1  0  0.291793  0  0.917158  0  0  0.281173  0  0.973662  0  0  0.286539  0  0.970784  0  0  0.299679  0.277323  0  0.975937  0
H  H36  1  0.84664170  0.26934148  0.29314115  1  0  0.09879  0  0.959993  0  0  0.114476  0  1.019761  0  0  0.116256  0  1.019524  0  0  0.09892  0.113375  0  1.019356  0
H  H37  1  0.15335878  0.73065760  0.79314050  1  0  0.098762  0  0.960003  0  0  0.114417  0  1.019802  0  0  0.116196  0  1.019565  0  0  0.098904  0.113318  0  1.019395  0
H  H38  1  0.23066040  0.34664192  0.04313992  1  0  0.098782  0  0.960032  0  0  0.114479  0  1.019804  0  0  0.116259  0  1.019566  0  0  0.098935  0.113379  0  1.019398  0
H  H39  1  0.76933987  0.65335730  0.54314057  1  0  0.098759  0  0.960065  0  0  0.114454  0  1.019838  0  0  0.116234  0  1.0196  0  0  0.098921  0.113354  0  1.019433  0
H  H40  1  0.65335566  0.76933995  0.45685953  1  0  0.098756  0  0.95998  0  0  0.114432  0  1.019789  0  0  0.116212  0  1.01955  0  0  0.09891  0.113334  0  1.019381  0
H  H41  1  0.34664419  0.23066020  0.95685946  1  0  0.09875  0  0.96005  0  0  0.114423  0  1.019855  0  0  0.116203  0  1.019617  0  0  0.098914  0.113325  0  1.019446  0
H  H42  1  0.26934120  0.84664045  0.70685926  1  0  0.098798  0  0.960069  0  0  0.114475  0  1.019828  0  0  0.116254  0  1.019592  0  0  0.098939  0.113374  0  1.019424  0
H  H43  1  0.73065845  0.15335984  0.20685936  1  0  0.098785  0  0.960012  0  0  0.114471  0  1.019776  0  0  0.11625  0  1.019541  0  0  0.098924  0.11337  0  1.019372  0
H  H44  1  0.73559624  0.51102265  0.20776893  1  0  0.049276  0  0.954669  0  0  0.068037  0  1.0183  0  0  0.068792  0  1.01757  0  0  0.108246  0.067533  0  1.018331  0
H  H45  1  0.26440456  0.48897765  0.70776894  1  0  0.049329  0  0.954634  0  0  0.068073  0  1.018297  0  0  0.068826  0  1.017571  0  0  0.108265  0.067569  0  1.018328  0
H  H46  1  0.98897906  0.23559593  0.95776852  1  0  0.049254  0  0.954585  0  0  0.068055  0  1.018161  0  0  0.068811  0  1.01743  0  0  0.108237  0.067552  0  1.018192  0
H  H47  1  0.01102427  0.76440306  0.45776973  1  0  0.049267  0  0.954546  0  0  0.068061  0  1.018142  0  0  0.068818  0  1.01741  0  0  0.108227  0.067556  0  1.018175  0
H  H48  1  0.76440184  0.01102040  0.54223182  1  0  0.049256  0  0.954628  0  0  0.068045  0  1.018188  0  0  0.068802  0  1.017455  0  0  0.10824  0.06754  0  1.018221  0
H  H49  1  0.23559844  0.98897882  0.04223178  1  0  0.04925  0  0.954728  0  0  0.068044  0  1.018262  0  0  0.068801  0  1.017531  0  0  0.108244  0.06754  0  1.018294  0
H  H50  1  0.51102330  0.73559426  0.79223055  1  0  0.049214  0  0.954711  0  0  0.068014  0  1.018266  0  0  0.068768  0  1.017537  0  0  0.108216  0.067508  0  1.0183  0
H  H51  1  0.48897486  0.26440599  0.29223026  1  0  0.04923  0  0.954535  0  0  0.068026  0  1.018145  0  0  0.068779  0  1.017418  0  0  0.108213  0.067521  0  1.018179  0
H  H52  1  0.83349875  0.39132643  0.11781837  1  0  0.067513  0  0.900609  0  0  0.090991  0  0.954342  0  0  0.091287  0  0.954602  0  0  0.113698  0.090554  0  0.954164  0
H  H53  1  0.16650008  0.60867391  0.61781852  1  0  0.067518  0  0.900582  0  0  0.091008  0  0.95432  0  0  0.091303  0  0.954581  0  0  0.113707  0.090571  0  0.954143  0
H  H54  1  0.10867683  0.33349813  0.86781959  1  0  0.06747  0  0.900759  0  0  0.090927  0  0.954502  0  0  0.091222  0  0.954763  0  0  0.113668  0.09049  0  0.954323  0
H  H55  1  0.89132337  0.66650323  0.36782085  1  0  0.06746  0  0.900808  0  0  0.09092  0  0.954544  0  0  0.091216  0  0.954805  0  0  0.113671  0.090484  0  0.954364  0
H  H56  1  0.66650114  0.89132251  0.63218228  1  0  0.06752  0  0.900647  0  0  0.090969  0  0.954377  0  0  0.091266  0  0.954636  0  0  0.113684  0.090532  0  0.9542  0
H  H57  1  0.33350111  0.10867666  0.13218230  1  0  0.067532  0  0.900644  0  0  0.090969  0  0.95438  0  0  0.091267  0  0.954637  0  0  0.113686  0.090533  0  0.954202  0
H  H58  1  0.39132749  0.83349822  0.88218034  1  0  0.067521  0  0.900682  0  0  0.090968  0  0.954411  0  0  0.091263  0  0.954671  0  0  0.113676  0.090531  0  0.954233  0
H  H59  1  0.60867265  0.16650314  0.38217986  1  0  0.067496  0  0.900692  0  0  0.090966  0  0.954436  0  0  0.091261  0  0.954697  0  0  0.113692  0.090529  0  0.954257  0
C  C60  1  0.73561338  0.26438645  0.24999950  1  0  -0.210502  0  3.674036  0  0  -0.247054  0  3.937533  0  0  -0.250772  0  3.95178  0  0  -0.179792  -0.245268  0  3.927977  0
C  C61  1  0.26438610  0.73561382  0.74999944  1  0  -0.21039  0  3.674034  0  0  -0.246902  0  3.937458  0  0  -0.250622  0  3.951714  0  0  -0.179753  -0.245117  0  3.927905  0
C  C62  1  0.23561647  0.23561532  0.00000055  1  0  -0.210315  0  3.673981  0  0  -0.246958  0  3.937496  0  0  -0.250686  0  3.951763  0  0  -0.179782  -0.245173  0  3.927943  0
C  C63  1  0.76438396  0.76438393  0.50000197  1  0  -0.2103  0  3.673986  0  0  -0.246931  0  3.937508  0  0  -0.25066  0  3.951776  0  0  -0.179746  -0.245148  0  3.927954  0
C  C64  1  0.73093768  0.39626268  0.16956847  1  0  0.09746  0  3.620667  0  0  0.035281  0  3.89319  0  0  0.040292  0  3.904765  0  0  -0.069466  0.031989  0  3.884788  0
C  C65  1  0.26906443  0.60373647  0.66957002  1  0  0.097419  0  3.620683  0  0  0.035183  0  3.89327  0  0  0.040192  0  3.904846  0  0  -0.069525  0.031895  0  3.884859  0
C  C66  1  0.10374264  0.23094128  0.91956566  1  0  0.097484  0  3.620579  0  0  0.035355  0  3.893011  0  0  0.040364  0  3.904585  0  0  -0.069423  0.032062  0  3.884609  0
C  C67  1  0.89625387  0.76905540  0.41956530  1  0  0.097503  0  3.620677  0  0  0.035362  0  3.893109  0  0  0.040372  0  3.904682  0  0  -0.069423  0.03207  0  3.884707  0
C  C68  1  0.76905989  0.89625896  0.58043218  1  0  0.097337  0  3.620784  0  0  0.035255  0  3.89315  0  0  0.040264  0  3.904725  0  0  -0.069459  0.031963  0  3.884748  0
C  C69  1  0.23093908  0.10374024  0.08043159  1  0  0.097293  0  3.620925  0  0  0.035253  0  3.893214  0  0  0.040261  0  3.904791  0  0  -0.069448  0.031962  0  3.884806  0
C  C70  1  0.39626150  0.73093908  0.83043272  1  0  0.097394  0  3.62077  0  0  0.035303  0  3.893132  0  0  0.040313  0  3.904706  0  0  -0.069435  0.03201  0  3.88473  0
C  C71  1  0.60374116  0.26905998  0.33043380  1  0  0.097569  0  3.620484  0  0  0.035381  0  3.89299  0  0  0.040391  0  3.904565  0  0  -0.069409  0.03209  0  3.884584  0
N  N72  1  0.59261260  0.39058235  0.09958170  1  0  -0.654455  0  3.11682  0  0  -0.592489  0  3.390154  0  0  -0.612173  0  3.3851  0  0  -0.630186  -0.578674  0  3.393873  0
N  N73  1  0.40738048  0.60942032  0.59957747  1  0  -0.654385  0  3.116878  0  0  -0.592287  0  3.390275  0  0  -0.611974  0  3.385229  0  0  -0.630097  -0.578471  0  3.393992  0
N  N74  1  0.10941124  0.09260262  0.84958906  1  0  -0.655019  0  3.116896  0  0  -0.592876  0  3.39042  0  0  -0.61256  0  3.385357  0  0  -0.630317  -0.579058  0  3.394143  0
N  N75  1  0.89059251  0.90740108  0.34959422  1  0  -0.655282  0  3.117199  0  0  -0.593124  0  3.390726  0  0  -0.612806  0  3.385657  0  0  -0.630386  -0.579306  0  3.394454  0
N  N76  1  0.90738729  0.89058232  0.65041737  1  0  -0.654418  0  3.116786  0  0  -0.592408  0  3.390124  0  0  -0.612091  0  3.38507  0  0  -0.630148  -0.578592  0  3.393841  0
N  N77  1  0.09261490  0.10941801  0.15041860  1  0  -0.654317  0  3.116878  0  0  -0.592288  0  3.390271  0  0  -0.611971  0  3.385218  0  0  -0.630126  -0.578472  0  3.39399  0
N  N78  1  0.39058686  0.59260734  0.90041410  1  0  -0.654645  0  3.116867  0  0  -0.592688  0  3.390264  0  0  -0.612373  0  3.385205  0  0  -0.63027  -0.578872  0  3.393988  0
N  N79  1  0.60940856  0.40739865  0.40040960  1  0  -0.655099  0  3.116921  0  0  -0.592997  0  3.390478  0  0  -0.612682  0  3.385411  0  0  -0.630341  -0.579179  0  3.394207  0
O  O80  1  0.44343396  0.70361098  0.12948883  1  0  -0.898581  0  2.144009  0  0  -0.778126  0  2.415574  0  0  -0.806173  0  2.391304  0  0  -0.202879  -0.758195  0  2.432114  0
O  O81  1  0.55656366  0.29638820  0.62948995  1  0  -0.898593  0  2.144151  0  0  -0.778117  0  2.415683  0  0  -0.806184  0  2.391415  0  0  -0.20283  -0.758178  0  2.43221  0
O  O82  1  0.79638873  0.94343493  0.87948905  1  0  -0.898613  0  2.144073  0  0  -0.77816  0  2.415634  0  0  -0.806207  0  2.391356  0  0  -0.20286  -0.758223  0  2.432163  0
O  O83  1  0.20361142  0.05656411  0.37949011  1  0  -0.898572  0  2.144139  0  0  -0.778128  0  2.415683  0  0  -0.80617  0  2.391404  0  0  -0.202817  -0.758198  0  2.432231  0
O  O84  1  0.05656507  0.20361066  0.62051038  1  0  -0.898581  0  2.144063  0  0  -0.778135  0  2.415643  0  0  -0.806178  0  2.391361  0  0  -0.202854  -0.758198  0  2.432168  0
O  O85  1  0.94343723  0.79638852  0.12050915  1  0  -0.898667  0  2.144168  0  0  -0.778224  0  2.415717  0  0  -0.80629  0  2.391452  0  0  -0.202832  -0.758202  0  2.432191  0
O  O86  1  0.70361167  0.44343500  0.87051076  1  0  -0.898602  0  2.144099  0  0  -0.778148  0  2.415654  0  0  -0.806202  0  2.391378  0  0  -0.202862  -0.758217  0  2.43219  0
O  O87  1  0.29638852  0.55656520  0.37050994  1  0  -0.898578  0  2.144105  0  0  -0.77814  0  2.415657  0  0  -0.80618  0  2.391381  0  0  -0.20285  -0.75821  0  2.432199  0
O  O88  1  0.73345046  0.73344992  0.99999922  1  0  -0.950812  0  2.174553  0  0  -0.813554  0  2.458338  0  0  -0.842149  0  2.436318  0  0  -0.22934  -0.792636  0  2.472406  0
O  O89  1  0.26654923  0.26655021  0.50000011  1  0  -0.950826  0  2.174603  0  0  -0.813539  0  2.45836  0  0  -0.842128  0  2.436337  0  0  -0.229342  -0.79262  0  2.472421  0
O  O90  1  0.76655074  0.23344900  0.74999986  1  0  -0.950823  0  2.174514  0  0  -0.813594  0  2.458313  0  0  -0.842193  0  2.436292  0  0  -0.229315  -0.79267  0  2.472369  0
O  O91  1  0.23344990  0.76655010  0.24999988  1  0  -0.950839  0  2.174582  0  0  -0.813568  0  2.458361  0  0  -0.842153  0  2.436332  0  0  -0.229347  -0.792644  0  2.472421  0
O  O92  1  0.49600254  0.74252294  0.31460470  1  0  -0.878025  0  2.076282  0  0  -0.771067  0  2.334545  0  0  -0.796544  0  2.310639  0  0  -0.204351  -0.752677  0  2.349381  0
O  O93  1  0.50399670  0.25747962  0.81460434  1  0  -0.878037  0  2.076268  0  0  -0.771065  0  2.334531  0  0  -0.796544  0  2.31062  0  0  -0.204347  -0.752675  0  2.34937  0
O  O94  1  0.75747971  0.99600313  0.06460267  1  0  -0.878033  0  2.076309  0  0  -0.77108  0  2.334574  0  0  -0.796558  0  2.310665  0  0  -0.20436  -0.75269  0  2.349423  0
O  O95  1  0.24252048  0.00399841  0.56460442  1  0  -0.87799  0  2.076349  0  0  -0.771016  0  2.334631  0  0  -0.796496  0  2.310731  0  0  -0.204325  -0.752623  0  2.349469  0
O  O96  1  0.00399539  0.24252147  0.43539608  1  0  -0.878081  0  2.076266  0  0  -0.771125  0  2.334532  0  0  -0.796601  0  2.310625  0  0  -0.204389  -0.752736  0  2.349372  0
O  O97  1  0.99600338  0.75747985  0.93539552  1  0  -0.878054  0  2.076265  0  0  -0.771063  0  2.33452  0  0  -0.79654  0  2.310613  0  0  -0.20435  -0.752675  0  2.34937  0
O  O98  1  0.74252035  0.49600425  0.68539717  1  0  -0.878029  0  2.07633  0  0  -0.771077  0  2.3346  0  0  -0.796556  0  2.31069  0  0  -0.204366  -0.752687  0  2.349438  0
O  O99  1  0.25747938  0.50399722  0.18539643  1  0  -0.877971  0  2.076296  0  0  -0.771026  0  2.334608  0  0  -0.7965  0  2.310708  0  0  -0.204326  -0.752635  0  2.349448  0
O  O100  1  0.68968300  0.79742507  0.18936120  1  0  -0.857997  0  2.158335  0  0  -0.746331  0  2.422539  0  0  -0.774026  0  2.399665  0  0  -0.189893  -0.726521  0  2.43614  0
O  O101  1  0.31031091  0.20257407  0.68935962  1  0  -0.858008  0  2.158218  0  0  -0.746388  0  2.422531  0  0  -0.774084  0  2.399655  0  0  -0.189947  -0.726574  0  2.436124  0
O  O102  1  0.70257338  0.18968543  0.93936025  1  0  -0.85796  0  2.15822  0  0  -0.74635  0  2.422503  0  0  -0.774052  0  2.399633  0  0  -0.189943  -0.726534  0  2.43609  0
O  O103  1  0.29742654  0.81031473  0.43936094  1  0  -0.85798  0  2.158256  0  0  -0.746363  0  2.422514  0  0  -0.774062  0  2.399647  0  0  -0.189953  -0.726546  0  2.436101  0
O  O104  1  0.81031557  0.29742638  0.56063869  1  0  -0.858027  0  2.158251  0  0  -0.746389  0  2.422506  0  0  -0.774085  0  2.399625  0  0  -0.189941  -0.726576  0  2.436094  0
O  O105  1  0.18968812  0.70257284  0.06063959  1  0  -0.857989  0  2.158221  0  0  -0.746397  0  2.422558  0  0  -0.774092  0  2.399683  0  0  -0.189952  -0.726585  0  2.436164  0
O  O106  1  0.79742658  0.68968656  0.81063962  1  0  -0.857972  0  2.158239  0  0  -0.746367  0  2.422553  0  0  -0.774068  0  2.399685  0  0  -0.189963  -0.726551  0  2.436139  0
O  O107  1  0.20257383  0.31031600  0.31063903  1  0  -0.857966  0  2.158283  0  0  -0.746351  0  2.422527  0  0  -0.774051  0  2.399667  0  0  -0.189929  -0.726534  0  2.436116  0
