# generated using pymatgen
data_ZnH23C34SN3O10
_symmetry_space_group_name_H-M   'P 1'
_cell_length_a   8.12592203
_cell_length_b   10.09308335
_cell_length_c   19.06550000
_cell_angle_alpha   102.67738177
_cell_angle_beta   97.33927606
_cell_angle_gamma   93.12914857
_symmetry_Int_Tables_number   1
_chemical_formula_structural   ZnH23C34SN3O10
_chemical_formula_sum   'Zn2 H46 C68 S2 N6 O20'
_cell_volume   1507.52393121
_cell_formula_units_Z   2
loop_
 _symmetry_equiv_pos_site_id
 _symmetry_equiv_pos_as_xyz
  1  'x, y, z'
loop_
 _atom_site_type_symbol
 _atom_site_label
 _atom_site_symmetry_multiplicity
 _atom_site_fract_x
 _atom_site_fract_y
 _atom_site_fract_z
 _atom_site_occupancy
 _atom_site_hle17_bader_spin_density
 _atom_site_hle17_ddec_charge
 _atom_site_hle17_ddec_spin_density
 _atom_site_hle17_ddec_sum_bond_order
 _atom_site_hle17_magmom
 _atom_site_hse06_10hf_bader_spin_density
 _atom_site_hse06_10hf_ddec_charge
 _atom_site_hse06_10hf_ddec_spin_density
 _atom_site_hse06_10hf_ddec_sum_bond_order
 _atom_site_hse06_10hf_magmom
 _atom_site_hse06_bader_spin_density
 _atom_site_hse06_ddec_charge
 _atom_site_hse06_ddec_spin_density
 _atom_site_hse06_ddec_sum_bond_order
 _atom_site_hse06_magmom
 _atom_site_pbe_bader_charge
 _atom_site_pbe_bader_spin_density
 _atom_site_pbe_cm5_charge
 _atom_site_pbe_ddec_charge
 _atom_site_pbe_ddec_spin_density
 _atom_site_pbe_ddec_sum_bond_order
 _atom_site_pbe_magmom
Zn  Zn0  1  0.51900206  0.57606998  0.27554291  1  0  0.997912  0  1.87515  0  0  0.803722  0  2.355812  0  0  0.850001  0  2.300914  0  1.252783  0  0.718585  0.77129  0  2.393976  0
Zn  Zn1  1  0.48100053  0.42393155  0.72445851  1  0  0.997793  0  1.875167  0  0  0.803662  0  2.355741  0  0  0.849946  0  2.30085  0  1.252826  0  0.718588  0.771232  0  2.393905  0
H  H2  1  0.34547795  0.82953075  0.44301558  1  0  0.389071  0  0.925368  0  0  0.358174  0  1.002247  0  0  0.370088  0  0.986154  0  0.636676  0  0.296396  0.349897  0  1.011942  0
H  H3  1  0.65452339  0.17047079  0.55698472  1  0  0.389088  0  0.925352  0  0  0.358185  0  1.002235  0  0  0.370098  0  0.986142  0  0.636665  0  0.296393  0.349907  0  1.011935  0
H  H4  1  0.07875085  0.41356061  0.88497074  1  0  0.337355  0  0.953229  0  0  0.299544  0  1.040702  0  0  0.313067  0  1.028932  0  0.612078  0  0.283976  0.290146  0  1.048788  0
H  H5  1  0.92125163  0.58643991  0.11503266  1  0  0.337338  0  0.953247  0  0  0.299517  0  1.040744  0  0  0.313041  0  1.028972  0  0.612114  0  0.28396  0.290118  0  1.048831  0
H  H6  1  0.90359274  0.81046656  0.44876569  1  0  0.113896  0  0.938601  0  0  0.120531  0  1.003089  0  0  0.124308  0  1.001288  0  0.113035  0  0.110955  0.117868  0  1.004428  0
H  H7  1  0.09641066  0.18953090  0.55123583  1  0  0.113952  0  0.938524  0  0  0.120624  0  1.002961  0  0  0.124405  0  1.001151  0  0.113015  0  0.110981  0.11796  0  1.004301  0
H  H8  1  0.06320837  0.91979210  0.56969806  1  0  0.119894  0  0.958271  0  0  0.123477  0  1.027489  0  0  0.127616  0  1.024156  0  0.168019  0  0.111632  0.120472  0  1.029865  0
H  H9  1  0.93679783  0.08020842  0.43030344  1  0  0.119875  0  0.958348  0  0  0.123555  0  1.027446  0  0  0.127704  0  1.024118  0  0.16808  0  0.111647  0.120548  0  1.029829  0
H  H10  1  0.60092915  0.94877468  0.65929835  1  0  0.121598  0  0.94119  0  0  0.129231  0  1.003973  0  0  0.133247  0  1.000891  0  0.144877  0  0.117134  0.126293  0  1.006332  0
H  H11  1  0.39907655  0.05123297  0.34070238  1  0  0.121568  0  0.941236  0  0  0.129266  0  1.003952  0  0  0.133278  0  1.000867  0  0.144885  0  0.117156  0.126329  0  1.006311  0
H  H12  1  0.24006544  0.88618413  0.71737696  1  0  0.131735  0  0.950894  0  0  0.138774  0  1.014867  0  0  0.142677  0  1.011856  0  0.163233  0  0.115478  0.135916  0  1.017225  0
H  H13  1  0.75993456  0.11381639  0.28262420  1  0  0.131702  0  0.950915  0  0  0.138743  0  1.014882  0  0  0.142646  0  1.011871  0  0.163251  0  0.115459  0.135884  0  1.017242  0
H  H14  1  0.82738966  0.71048149  0.85424612  1  0  0.100108  0  0.953433  0  0  0.107931  0  1.020332  0  0  0.11126  0  1.018786  0  0.104788  0  0.102957  0.105535  0  1.021544  0
H  H15  1  0.17260495  0.28951495  0.14575218  1  0  0.100082  0  0.953515  0  0  0.107928  0  1.020393  0  0  0.111255  0  1.018846  0  0.104733  0  0.102933  0.105532  0  1.021604  0
H  H16  1  0.75601436  0.89131201  0.78934125  1  0  0.118634  0  0.948226  0  0  0.127769  0  1.010052  0  0  0.131178  0  1.007902  0  0.129486  0  0.110614  0.125324  0  1.011594  0
H  H17  1  0.24398035  0.10868545  0.21065770  1  0  0.118632  0  0.948278  0  0  0.127817  0  1.010051  0  0  0.131223  0  1.007909  0  0.129518  0  0.110608  0.125365  0  1.011607  0
H  H18  1  0.30521505  0.52714767  0.13549231  1  0  0.075941  0  0.943036  0  0  0.084709  0  1.010258  0  0  0.087051  0  1.007675  0  0.125262  0  0.117556  0.082912  0  1.012357  0
H  H19  1  0.69477945  0.47284775  0.86450848  1  0  0.075987  0  0.942974  0  0  0.084762  0  1.010175  0  0  0.087103  0  1.007592  0  0.125331  0  0.117575  0.082964  0  1.012275  0
H  H20  1  0.21951272  0.65713764  0.04171036  1  0  0.113414  0  0.95702  0  0  0.122281  0  1.018368  0  0  0.125723  0  1.017375  0  0.125464  0  0.10896  0.119615  0  1.019233  0
H  H21  1  0.78048437  0.34285881  0.95828964  1  0  0.113379  0  0.957027  0  0  0.122232  0  1.018385  0  0  0.125674  0  1.017391  0  0.125445  0  0.108948  0.119567  0  1.019246  0
H  H22  1  0.53584395  0.00290488  0.17583924  1  0  0.113859  0  0.972561  0  0  0.121301  0  1.037572  0  0  0.124494  0  1.036816  0  0.154875  0  0.108795  0.118852  0  1.038738  0
H  H23  1  0.46415811  0.99709156  0.82416052  1  0  0.113816  0  0.972593  0  0  0.12127  0  1.037593  0  0  0.124463  0  1.036835  0  0.154844  0  0.108785  0.11882  0  1.03876  0
H  H24  1  0.61548728  0.85724130  0.26163146  1  0  0.096938  0  0.945361  0  0  0.106008  0  1.006546  0  0  0.108383  0  1.004186  0  0.164833  0  0.122895  0.104163  0  1.008407  0
H  H25  1  0.38450846  0.14275413  0.73836783  1  0  0.096925  0  0.945389  0  0  0.105988  0  1.006581  0  0  0.108364  0  1.004219  0  0.164794  0  0.122895  0.104143  0  1.008443  0
H  H26  1  0.22834790  0.86001164  0.99966662  1  0  0.095091  0  0.957486  0  0  0.104659  0  1.02178  0  0  0.107737  0  1.020449  0  0.095027  0  0.102328  0.102419  0  1.022779  0
H  H27  1  0.77165518  0.13998277  0.00033190  1  0  0.095084  0  0.95748  0  0  0.104672  0  1.02174  0  0  0.107751  0  1.020409  0  0.095054  0  0.102333  0.102424  0  1.022754  0
H  H28  1  0.43308095  0.11101343  0.10305711  1  0  0.10992  0  0.972662  0  0  0.120899  0  1.03199  0  0  0.123984  0  1.030481  0  0.131186  0  0.107499  0.118603  0  1.033171  0
H  H29  1  0.56692338  0.88898097  0.89694148  1  0  0.109886  0  0.97268  0  0  0.120873  0  1.032003  0  0  0.123958  0  1.030496  0  0.131947  0  0.107502  0.118578  0  1.033185  0
H  H30  1  0.45783720  0.31037100  0.05933168  1  0  0.127968  0  0.954706  0  0  0.13577  0  1.017074  0  0  0.13952  0  1.015485  0  0.133067  0  0.110961  0.132907  0  1.018323  0
H  H31  1  0.54216901  0.68962952  0.94066720  1  0  0.127922  0  0.954543  0  0  0.135746  0  1.016891  0  0  0.139503  0  1.015299  0  0.133196  0  0.110933  0.132883  0  1.01814  0
H  H32  1  0.33343816  0.46024667  0.98003657  1  0  0.080666  0  0.964885  0  0  0.086911  0  1.033307  0  0  0.089721  0  1.030958  0  0.100196  0  0.113743  0.084727  0  1.035175  0
H  H33  1  0.66656049  0.53975283  0.01996388  1  0  0.080627  0  0.964916  0  0  0.08689  0  1.033313  0  0  0.089698  0  1.030968  0  0.100517  0  0.113732  0.084707  0  1.035177  0
H  H34  1  0.98301927  0.15146776  0.86573299  1  0  0.080743  0  0.971799  0  0  0.08612  0  1.04234  0  0  0.088514  0  1.040714  0  0.13407  0  0.111956  0.084306  0  1.043407  0
H  H35  1  0.01697825  0.84853276  0.13426751  1  0  0.080683  0  0.971886  0  0  0.086086  0  1.042408  0  0  0.088478  0  1.04078  0  0.133889  0  0.111947  0.084271  0  1.043476  0
H  H36  1  0.09021811  0.98758596  0.93702718  1  0  0.104037  0  0.963537  0  0  0.113803  0  1.025721  0  0  0.115927  0  1.027175  0  0.069716  0  0.104931  0.112058  0  1.025384  0
H  H37  1  0.90978313  0.01241455  0.06297405  1  0  0.104006  0  0.963564  0  0  0.11377  0  1.025764  0  0  0.115894  0  1.027218  0  0.069695  0  0.104913  0.112025  0  1.025426  0
H  H38  1  0.15574334  0.62943830  0.26594469  1  0  0.089844  0  0.947235  0  0  0.096506  0  1.014025  0  0  0.099355  0  1.010971  0  0.130437  0  0.118929  0.094364  0  1.016261  0
H  H39  1  0.84425945  0.37056528  0.73405436  1  0  0.089853  0  0.947185  0  0  0.096516  0  1.013983  0  0  0.099371  0  1.010916  0  0.129846  0  0.118941  0.094374  0  1.01622  0
H  H40  1  0.94118990  0.61485273  0.34665587  1  0  0.130783  0  0.94578  0  0  0.138735  0  1.007197  0  0  0.142776  0  1.005024  0  0.14591  0  0.11404  0.135775  0  1.008963  0
H  H41  1  0.05880897  0.38514881  0.65334273  1  0  0.13078  0  0.945772  0  0  0.138743  0  1.007177  0  0  0.142782  0  1.005006  0  0.145938  0  0.114059  0.135783  0  1.008941  0
H  H42  1  0.26764481  0.37770416  0.45755086  1  0  0.093749  0  0.999346  0  0  0.103325  0  1.062955  0  0  0.104718  0  1.065578  0  0.078336  0  0.099869  0.102259  0  1.061348  0
H  H43  1  0.73235157  0.62229738  0.54244865  1  0  0.093722  0  0.999395  0  0  0.103307  0  1.06299  0  0  0.104699  0  1.065614  0  0.078302  0  0.099859  0.102241  0  1.061383  0
H  H44  1  0.46031105  0.38822289  0.36737621  1  0  0.087287  0  0.928248  0  0  0.097089  0  0.98896  0  0  0.099477  0  0.987068  0  0.111437  0  0.119231  0.09522  0  0.990485  0
H  H45  1  0.53969019  0.61177763  0.63262345  1  0  0.087283  0  0.928303  0  0  0.097091  0  0.988999  0  0  0.099474  0  0.987112  0  0.111434  0  0.119233  0.095221  0  0.990524  0
H  H46  1  0.85379480  0.53761952  0.44955669  1  0  0.100424  0  0.952776  0  0  0.111171  0  1.014147  0  0  0.114251  0  1.012728  0  0.095559  0  0.107314  0.108936  0  1.01526  0
H  H47  1  0.14620892  0.46238100  0.55044205  1  0  0.100361  0  0.952788  0  0  0.111197  0  1.014077  0  0  0.114278  0  1.012654  0  0.095537  0  0.107305  0.10896  0  1.015195  0
C  C48  1  0.58275407  0.76327290  0.40802929  1  0  0.638366  0  3.891021  0  0  0.585942  0  4.185078  0  0  0.619468  0  4.17794  0  1.581824  0  0.212422  0.563164  0  4.189182  0
C  C49  1  0.41724976  0.23672863  0.59197167  1  0  0.638229  0  3.89108  0  0  0.585791  0  4.18514  0  0  0.619319  0  4.178001  0  1.581839  0  0.212365  0.563021  0  4.189234  0
C  C50  1  0.66336802  0.82284238  0.48482347  1  0  -0.063348  0  3.694457  0  0  -0.049944  0  3.930917  0  0  -0.051623  0  3.948573  0  -0.03749  0  -0.003913  -0.048716  0  3.91907  0
C  C51  1  0.33663219  0.17716018  0.51517847  1  0  -0.063325  0  3.694493  0  0  -0.049904  0  3.930937  0  0  -0.051587  0  3.948593  0  -0.037496  0  -0.003879  -0.04868  0  3.919088  0
C  C52  1  0.83819631  0.84256399  0.49522358  1  0  -0.058544  0  3.68489  0  0  -0.083048  0  3.943009  0  0  -0.085713  0  3.961195  0  0.060249  0  -0.072969  -0.081483  0  3.930884  0
C  C53  1  0.16180628  0.15743755  0.50477785  1  0  -0.058542  0  3.684798  0  0  -0.083082  0  3.942952  0  0  -0.085744  0  3.961139  0  0.060194  0  -0.07299  -0.081514  0  3.930824  0
C  C54  1  0.92790546  0.90438297  0.56258049  1  0  -0.031796  0  3.685946  0  0  -0.058869  0  3.939905  0  0  -0.055927  0  3.956388  0  -0.055542  0  -0.06754  -0.060491  0  3.928641  0
C  C55  1  0.07209858  0.09562061  0.43742072  1  0  -0.03189  0  3.68593  0  0  -0.05902  0  3.939853  0  0  -0.056095  0  3.956351  0  -0.055528  0  -0.06755  -0.060642  0  3.928591  0
C  C56  1  0.83957847  0.94515632  0.62074668  1  0  -0.097293  0  3.72349  0  0  -0.073068  0  3.973282  0  0  -0.080003  0  3.994865  0  -0.191867  0  -0.012863  -0.068623  0  3.958586  0
C  C57  1  0.16042465  0.05485031  0.37925326  1  0  -0.097176  0  3.723505  0  0  -0.072974  0  3.973351  0  0  -0.079907  0  3.994932  0  -0.191822  0  -0.012882  -0.06853  0  3.958653  0
C  C58  1  0.66771883  0.91985122  0.61310621  1  0  -0.044109  0  3.715579  0  0  -0.081352  0  3.97017  0  0  -0.077845  0  3.986827  0  -0.029639  0  -0.068488  -0.083463  0  3.958995  0
C  C59  1  0.33228304  0.08015542  0.38689419  1  0  -0.044215  0  3.715683  0  0  -0.081516  0  3.970299  0  0  -0.078001  0  3.986946  0  -0.029687  0  -0.068494  -0.083626  0  3.959125  0
C  C60  1  0.57586325  0.85969873  0.54512268  1  0  -0.099178  0  3.696956  0  0  -0.085082  0  3.937112  0  0  -0.092335  0  3.957927  0  -0.030951  0  -0.011766  -0.080559  0  3.9234  0
C  C61  1  0.42413717  0.14030587  0.45487898  1  0  -0.099071  0  3.696872  0  0  -0.084989  0  3.937053  0  0  -0.092237  0  3.957861  0  -0.030911  0  -0.011824  -0.080466  0  3.92334  0
C  C62  1  0.39035523  0.83807212  0.54734613  1  0  0.638741  0  3.833133  0  0  0.591752  0  4.134258  0  0  0.624282  0  4.126364  0  1.539362  0  0.223845  0.56969  0  4.139073  0
C  C63  1  0.60964519  0.16193247  0.45265501  1  0  0.638664  0  3.833168  0  0  0.591674  0  4.134296  0  0  0.624203  0  4.126402  0  1.539303  0  0.223823  0.569612  0  4.139111  0
C  C64  1  0.99761173  0.90335658  0.75273782  1  0  -0.116298  0  3.768743  0  0  -0.092999  0  4.022974  0  0  -0.099968  0  4.046062  0  -0.190593  0  -0.022638  -0.088436  0  4.007129  0
C  C65  1  0.00238391  0.09663783  0.24725925  1  0  -0.116078  0  3.768438  0  0  -0.09307  0  4.023096  0  0  -0.100041  0  4.046185  0  -0.190096  0  -0.022653  -0.088506  0  4.007245  0
C  C66  1  0.15332999  0.85191772  0.75014733  1  0  -0.078457  0  3.706009  0  0  -0.1114  0  3.95199  0  0  -0.109937  0  3.970633  0  -0.014163  0  -0.075406  -0.112185  0  3.939616  0
C  C67  1  0.84666451  0.14807771  0.24985032  1  0  -0.078465  0  3.705999  0  0  -0.111322  0  3.952064  0  0  -0.109857  0  3.970704  0  -0.014211  0  -0.075349  -0.112107  0  3.939686  0
C  C68  1  0.19284368  0.75042415  0.78700892  1  0  -0.047548  0  3.706938  0  0  -0.031502  0  3.93846  0  0  -0.037416  0  3.958743  0  -0.006237  0  -0.003804  -0.028017  0  3.925479  0
C  C69  1  0.80715351  0.24957332  0.21299016  1  0  -0.047429  0  3.707066  0  0  -0.031416  0  3.938546  0  0  -0.037313  0  3.958833  0  -0.006231  0  -0.003758  -0.027928  0  3.925559  0
C  C70  1  0.07623035  0.70084339  0.82578405  1  0  -0.052734  0  3.714183  0  0  -0.04182  0  3.949917  0  0  -0.044216  0  3.968244  0  -0.046492  0  -0.002179  -0.040426  0  3.938065  0
C  C71  1  0.92376788  0.29915203  0.17421433  1  0  -0.052815  0  3.714281  0  0  -0.041725  0  3.949797  0  0  -0.044167  0  3.968191  0  -0.046659  0  -0.002174  -0.040332  0  3.937945  0
C  C72  1  0.91939847  0.75120592  0.82595445  1  0  -0.071731  0  3.717851  0  0  -0.095684  0  3.975425  0  0  -0.097332  0  3.993556  0  -0.0245  0  -0.083257  -0.094678  0  3.963513  0
C  C73  1  0.08059727  0.24878951  0.17404274  1  0  -0.071725  0  3.717852  0  0  -0.095755  0  3.975411  0  0  -0.097386  0  3.993548  0  -0.024236  0  -0.083247  -0.094745  0  3.963495  0
C  C74  1  0.87884194  0.85332429  0.78951622  1  0  -0.055136  0  3.713116  0  0  -0.082752  0  3.968425  0  0  -0.080693  0  3.986164  0  -0.025227  0  -0.077752  -0.083775  0  3.956186  0
C  C75  1  0.12115360  0.14666909  0.21048178  1  0  -0.05518  0  3.712912  0  0  -0.082774  0  3.968351  0  0  -0.080722  0  3.986105  0  -0.025777  0  -0.077751  -0.083795  0  3.956103  0
C  C76  1  0.35204951  0.68320820  0.77772337  1  0  0.656351  0  3.934745  0  0  0.605229  0  4.234098  0  0  0.639624  0  4.225074  0  1.639135  0  0.207845  0.581769  0  4.239464  0
C  C77  1  0.64794666  0.31679130  0.22227641  1  0  0.656388  0  3.934848  0  0  0.60521  0  4.234288  0  0  0.63961  0  4.225256  0  1.639256  0  0.207812  0.581747  0  4.239653  0
C  C78  1  0.12689033  0.59874540  0.86920259  1  0  0.660639  0  3.841907  0  0  0.609473  0  4.146881  0  0  0.643519  0  4.135158  0  1.54396  0  0.226166  0.586404  0  4.154034  0
C  C79  1  0.87310719  0.40125512  0.13079739  1  0  0.660666  0  3.841805  0  0  0.609473  0  4.146763  0  0  0.643519  0  4.135059  0  1.544061  0  0.226193  0.586401  0  4.153919  0
C  C80  1  0.35503306  0.63213220  0.14160849  1  0  0.136106  0  3.704895  0  0  0.103674  0  3.955653  0  0  0.111867  0  3.973526  0  0.418236  0  0.04821  0.098254  0  3.943442  0
C  C81  1  0.64496041  0.36786527  0.85839196  1  0  0.135957  0  3.704891  0  0  0.103515  0  3.955665  0  0  0.11171  0  3.973538  0  0.418268  0  0.048158  0.0981  0  3.943456  0
C  C82  1  0.30623947  0.70522416  0.09015963  1  0  -0.159125  0  3.688597  0  0  -0.178892  0  3.938973  0  0  -0.187701  0  3.959912  0  -0.023094  0  -0.078636  -0.171792  0  3.923594  0
C  C83  1  0.69375557  0.29477636  0.90984074  1  0  -0.159113  0  3.688464  0  0  -0.178863  0  3.938826  0  0  -0.187672  0  3.959763  0  -0.023052  0  -0.078664  -0.171762  0  3.923448  0
C  C84  1  0.36925168  0.84180566  0.10051617  1  0  0.143981  0  3.784905  0  0  0.158218  0  4.016219  0  0  0.164913  0  4.038345  0  -0.044985  0  0.014459  0.153992  0  4.000595  0
C  C85  1  0.63074190  0.15819282  0.89948440  1  0  0.144036  0  3.784937  0  0  0.15831  0  4.016186  0  0  0.165003  0  4.03831  0  -0.044776  0  0.014516  0.154083  0  4.000564  0
C  C86  1  0.48350611  0.89718905  0.16359856  1  0  -0.148238  0  3.651392  0  0  -0.164235  0  3.895622  0  0  -0.173256  0  3.917045  0  -0.029434  0  -0.074669  -0.159492  0  3.882435  0
C  C87  1  0.51649481  0.10280841  0.83640020  1  0  -0.14814  0  3.651605  0  0  -0.164165  0  3.895799  0  0  -0.173191  0  3.917238  0  -0.029503  0  -0.074637  -0.159421  0  3.882611  0
C  C88  1  0.52700110  0.81749230  0.21249569  1  0  0.15388  0  3.661577  0  0  0.118113  0  3.914354  0  0  0.126892  0  3.930688  0  0.439324  0  0.055636  0.112474  0  3.903923  0
C  C89  1  0.47299588  0.18250312  0.78750419  1  0  0.153882  0  3.661675  0  0  0.118134  0  3.914439  0  0  0.126913  0  3.930774  0  0.439387  0  0.055652  0.112498  0  3.904012  0
C  C90  1  0.31004713  0.91900625  0.04760938  1  0  -0.096539  0  3.702866  0  0  -0.117279  0  3.954418  0  0  -0.121242  0  3.97473  0  0.006386  0  -0.078264  -0.114056  0  3.939654  0
C  C91  1  0.68995276  0.08099325  0.95238903  1  0  -0.096605  0  3.702793  0  0  -0.117375  0  3.954351  0  0  -0.121343  0  3.974672  0  0.006082  0  -0.078285  -0.11415  0  3.939582  0
C  C92  1  0.34861542  0.05386877  0.05535228  1  0  -0.098938  0  3.695652  0  0  -0.11649  0  3.941027  0  0  -0.119451  0  3.961651  0  -0.107427  0  -0.076802  -0.113975  0  3.926038  0
C  C93  1  0.65139015  0.94612563  0.94464533  1  0  -0.098808  0  3.695482  0  0  -0.116368  0  3.940856  0  0  -0.119329  0  3.96148  0  -0.108107  0  -0.076798  -0.113852  0  3.925867  0
C  C94  1  0.28228095  0.13634707  0.00634988  1  0  0.136789  0  3.799203  0  0  0.151309  0  4.028228  0  0  0.156561  0  4.050977  0  0.034163  0  0.011701  0.148035  0  4.012069  0
C  C95  1  0.71772256  0.86365141  0.99364967  1  0  0.136688  0  3.799366  0  0  0.151214  0  4.028377  0  0  0.156464  0  4.05113  0  0.034159  0  0.01167  0.147939  0  4.012221  0
C  C96  1  0.35110808  0.27175643  0.01746694  1  0  -0.17057  0  3.685954  0  0  -0.187233  0  3.934512  0  0  -0.195905  0  3.955772  0  -0.106547  0  -0.08093  -0.180248  0  3.918882  0
C  C97  1  0.64889699  0.72824511  0.98253304  1  0  -0.170473  0  3.68599  0  0  -0.187141  0  3.93451  0  0  -0.195821  0  3.955779  0  -0.106642  0  -0.08088  -0.180157  0  3.918882  0
C  C98  1  0.28420553  0.35491458  0.97398426  1  0  0.122576  0  3.71478  0  0  0.089264  0  3.968761  0  0  0.096138  0  3.986777  0  0.520225  0  0.044582  0.084813  0  3.956379  0
C  C99  1  0.71579323  0.64508594  0.02601631  1  0  0.12261  0  3.714724  0  0  0.089294  0  3.968692  0  0  0.096167  0  3.986713  0  0.520023  0  0.044615  0.084843  0  3.95631  0
C  C100  1  0.08803246  0.18179678  0.90924751  1  0  0.119753  0  3.710589  0  0  0.086227  0  3.965933  0  0  0.092627  0  3.984259  0  0.423708  0  0.042886  0.082397  0  3.953754  0
C  C101  1  0.91196857  0.81820170  0.09075242  1  0  0.119811  0  3.710577  0  0  0.086274  0  3.965921  0  0  0.092678  0  3.984243  0  0.423885  0  0.042926  0.082444  0  3.953741  0
C  C102  1  0.14898858  0.09130711  0.94945085  1  0  -0.162033  0  3.68809  0  0  -0.175614  0  3.929499  0  0  -0.184045  0  3.952554  0  -0.002216  0  -0.081499  -0.171006  0  3.91493  0
C  C103  1  0.85101390  0.90869341  0.05054940  1  0  -0.162003  0  3.688048  0  0  -0.175601  0  3.929474  0  0  -0.184031  0  3.952527  0  -0.002212  0  -0.081505  -0.170992  0  3.914905  0
C  C104  1  0.17423819  0.57240473  0.30816791  1  0  0.157662  0  3.676606  0  0  0.12162  0  3.933899  0  0  0.130868  0  3.949968  0  0.450451  0  0.054219  0.115534  0  3.922983  0
C  C105  1  0.82576337  0.42759884  0.69183054  1  0  0.157645  0  3.676587  0  0  0.121604  0  3.933873  0  0  0.130852  0  3.949945  0  0.451124  0  0.054232  0.115519  0  3.922959  0
C  C106  1  0.05641536  0.56608330  0.35420934  1  0  -0.140405  0  3.624395  0  0  -0.158591  0  3.869581  0  0  -0.166869  0  3.888147  0  0.006747  0  -0.071319  -0.153405  0  3.857172  0
C  C107  1  0.94358350  0.43391824  0.64578926  1  0  -0.140453  0  3.624443  0  0  -0.158674  0  3.869628  0  0  -0.166957  0  3.888209  0  0.006537  0  -0.071418  -0.153486  0  3.857221  0
C  C108  1  0.09096038  0.50203725  0.41223324  1  0  0.156444  0  3.772931  0  0  0.171619  0  4.000328  0  0  0.178709  0  4.021149  0  -0.025675  0  0.017996  0.167163  0  3.986202  0
C  C109  1  0.90904086  0.49796327  0.58776537  1  0  0.156435  0  3.772826  0  0  0.171656  0  4.000203  0  0  0.178744  0  4.02103  0  -0.025444  0  0.018008  0.167192  0  3.986092  0
C  C110  1  0.23812989  0.43489876  0.41610850  1  0  -0.166261  0  3.706891  0  0  -0.181302  0  3.944959  0  0  -0.191056  0  3.969708  0  0.054819  0  -0.086573  -0.175233  0  3.92874  0
C  C111  1  0.76186908  0.56510379  0.58389127  1  0  -0.166252  0  3.706876  0  0  -0.181306  0  3.944929  0  0  -0.191059  0  3.969676  0  0.054817  0  -0.086562  -0.175235  0  3.928711  0
C  C112  1  0.34616066  0.44042620  0.36627366  1  0  0.127694  0  3.719738  0  0  0.096905  0  3.968586  0  0  0.103973  0  3.988073  0  0.40504  0  0.045517  0.092172  0  3.955671  0
C  C113  1  0.65383945  0.55957534  0.63372605  1  0  0.127688  0  3.719856  0  0  0.09689  0  3.968704  0  0  0.103964  0  3.988191  0  0.405002  0  0.045511  0.092158  0  3.955789  0
C  C114  1  0.97848040  0.50984170  0.46621767  1  0  -0.083695  0  3.681002  0  0  -0.103431  0  3.92753  0  0  -0.106643  0  3.946772  0  -0.088252  0  -0.070436  -0.101208  0  3.914261  0
C  C115  1  0.02152074  0.49015780  0.53378134  1  0  -0.083634  0  3.680938  0  0  -0.103461  0  3.927428  0  0  -0.106672  0  3.94667  0  0.013642  0  -0.07043  -0.101237  0  3.914163  0
S  S116  1  0.94901074  0.03434490  0.70645188  1  0  1.060496  0  5.242486  0  0  0.991038  0  5.728643  0  0  1.030507  0  5.715433  0  2.466579  0  0.476329  0.963652  0  5.737267  0
S  S117  1  0.05099039  0.96565460  0.29354818  1  0  1.060478  0  5.242405  0  0  0.99112  0  5.728612  0  0  1.030589  0  5.715402  0  2.466352  0  0.476381  0.963734  0  5.737233  0
N  N118  1  0.31792033  0.51226447  0.31442556  1  0  -0.363079  0  3.353635  0  0  -0.276866  0  3.639291  0  0  -0.297648  0  3.653602  0  -1.258455  0  -0.347625  -0.263004  0  3.629697  0
N  N119  1  0.68207999  0.48773910  0.68557388  1  0  -0.362955  0  3.353681  0  0  -0.276762  0  3.639337  0  0  -0.297546  0  3.65365  0  -1.258458  0  -0.347582  -0.262902  0  3.629745  0
N  N120  1  0.46355043  0.68688874  0.20203195  1  0  -0.331645  0  3.311983  0  0  -0.244054  0  3.596005  0  0  -0.263733  0  3.608084  0  -1.256398  0  -0.336031  -0.231293  0  3.58823  0
N  N121  1  0.53644418  0.31310770  0.79796897  1  0  -0.331529  0  3.311977  0  0  -0.243962  0  3.595987  0  0  -0.263646  0  3.608077  0  -1.256456  0  -0.336011  -0.231213  0  3.588221  0
N  N122  1  0.15299766  0.31190804  0.92165726  1  0  -0.287411  0  3.221944  0  0  -0.218452  0  3.458646  0  0  -0.233781  0  3.475562  0  -1.239085  0  -0.307858  -0.208826  0  3.447496  0
N  N123  1  0.84700110  0.68809248  0.07834384  1  0  -0.287428  0  3.221889  0  0  -0.218487  0  3.458631  0  0  -0.233815  0  3.475544  0  -1.239248  0  -0.307898  -0.208857  0  3.447477  0
O  O124  1  0.44531864  0.80187931  0.38413277  1  0  -0.594935  0  2.040733  0  0  -0.542264  0  2.26962  0  0  -0.567597  0  2.262894  0  -1.165447  0  -0.300174  -0.524343  0  2.273028  0
O  O125  1  0.55468664  0.19812426  0.61586955  1  0  -0.594904  0  2.040709  0  0  -0.542214  0  2.269579  0  0  -0.567548  0  2.262855  0  -1.165552  0  -0.300142  -0.52429  0  2.272972  0
O  O126  1  0.66170628  0.67558619  0.36899104  1  0  -0.607495  0  2.035251  0  0  -0.536194  0  2.300545  0  0  -0.563471  0  2.286186  0  -1.161103  0  -0.308813  -0.51707  0  2.309841  0
O  O127  1  0.33829765  0.32441636  0.63100900  1  0  -0.607451  0  2.035275  0  0  -0.536176  0  2.300577  0  0  -0.563456  0  2.286222  0  -1.161091  0  -0.308802  -0.517057  0  2.309868  0
O  O128  1  0.28334283  0.82902112  0.48749919  1  0  -0.54919  0  2.103752  0  0  -0.498717  0  2.321348  0  0  -0.522745  0  2.308803  0  -1.163819  0  -0.333065  -0.481928  0  2.328457  0
O  O129  1  0.71665862  0.17098144  0.51250176  1  0  -0.549224  0  2.103789  0  0  -0.49875  0  2.321387  0  0  -0.52278  0  2.308848  0  -1.163775  0  -0.333065  -0.481962  0  2.328498  0
O  O130  1  0.34102018  0.83240098  0.60520909  1  0  -0.541915  0  1.900735  0  0  -0.505241  0  2.112674  0  0  -0.525023  0  2.104591  0  -1.143831  0  -0.296192  -0.491445  0  2.117801  0
O  O131  1  0.65897879  0.16760158  0.39479120  1  0  -0.541878  0  1.900753  0  0  -0.505214  0  2.112705  0  0  -0.524995  0  2.104623  0  -1.143815  0  -0.296186  -0.491416  0  2.117831  0
O  O132  1  0.83433780  0.11686295  0.74571785  1  0  -0.574992  0  1.961786  0  0  -0.531386  0  2.207386  0  0  -0.551057  0  2.199139  0  -1.301721  0  -0.307182  -0.517338  0  2.212353  0
O  O133  1  0.16566593  0.88313757  0.25428299  1  0  -0.575022  0  1.961758  0  0  -0.531419  0  2.207358  0  0  -0.551088  0  2.199108  0  -1.301498  0  -0.307214  -0.517371  0  2.212326  0
O  O134  1  0.10319560  0.09802504  0.69337236  1  0  -0.56868  0  1.935969  0  0  -0.526686  0  2.174341  0  0  -0.54563  0  2.163657  0  -1.296293  0  -0.308704  -0.51313  0  2.180996  0
O  O135  1  0.89680802  0.90197446  0.30662941  1  0  -0.568694  0  1.936031  0  0  -0.5267  0  2.174371  0  0  -0.545653  0  2.163708  0  -1.296266  0  -0.308706  -0.513144  0  2.181027  0
O  O136  1  0.32306395  0.55208890  0.75644921  1  0  -0.643844  0  2.078641  0  0  -0.567707  0  2.355766  0  0  -0.59738  0  2.339707  0  -1.186887  0  -0.331558  -0.546991  0  2.366342  0
O  O137  1  0.67693583  0.44790958  0.24355223  1  0  -0.643884  0  2.078717  0  0  -0.567714  0  2.355881  0  0  -0.597387  0  2.339816  0  -1.186918  0  -0.331515  -0.54701  0  2.366488  0
O  O138  1  0.48927864  0.75091441  0.78794663  1  0  -0.607965  0  1.914457  0  0  -0.565328  0  2.138603  0  0  -0.587476  0  2.129116  0  -1.188137  0  -0.317542  -0.549154  0  2.144252  0
O  O139  1  0.51071764  0.24908611  0.21205380  1  0  -0.608021  0  1.914489  0  0  -0.565358  0  2.138662  0  0  -0.587509  0  2.129175  0  -1.188258  0  -0.317566  -0.54918  0  2.144312  0
O  O140  1  0.25635768  0.62286817  0.91370052  1  0  -0.581633  0  1.93035  0  0  -0.540762  0  2.151363  0  0  -0.561974  0  2.142806  0  -1.160893  0  -0.299372  -0.525579  0  2.156426  0
O  O141  1  0.74364037  0.37713745  0.08629903  1  0  -0.581636  0  1.930357  0  0  -0.540775  0  2.151385  0  0  -0.56198  0  2.142827  0  -1.160961  0  -0.299409  -0.52559  0  2.156449  0
O  O142  1  0.02331939  0.48858305  0.85739671  1  0  -0.545539  0  2.102048  0  0  -0.494568  0  2.330282  0  0  -0.518299  0  2.317462  0  -1.15912  0  -0.322727  -0.477979  0  2.338564  0
O  O143  1  0.97668050  0.51141645  0.14260433  1  0  -0.545547  0  2.102008  0  0  -0.494583  0  2.330269  0  0  -0.51831  0  2.317452  0  -1.159134  0  -0.322721  -0.477991  0  2.338552  0
