# generated using pymatgen
data_Cd5H10C4S2(N2O)10
_symmetry_space_group_name_H-M   'P 1'
_cell_length_a   8.86875144
_cell_length_b   9.64853371
_cell_length_c   13.34360000
_cell_angle_alpha   90.00000000
_cell_angle_beta   102.94517979
_cell_angle_gamma   90.00000000
_symmetry_Int_Tables_number   1
_chemical_formula_structural   Cd5H10C4S2(N2O)10
_chemical_formula_sum   'Cd10 H20 C8 S4 N40 O20'
_cell_volume   1112.79834923
_cell_formula_units_Z   2
loop_
 _symmetry_equiv_pos_site_id
 _symmetry_equiv_pos_as_xyz
  1  'x, y, z'
loop_
 _atom_site_type_symbol
 _atom_site_label
 _atom_site_symmetry_multiplicity
 _atom_site_fract_x
 _atom_site_fract_y
 _atom_site_fract_z
 _atom_site_occupancy
 _atom_site_hle17_bader_spin_density
 _atom_site_hle17_ddec_charge
 _atom_site_hle17_ddec_spin_density
 _atom_site_hle17_ddec_sum_bond_order
 _atom_site_hle17_magmom
 _atom_site_hse06_10hf_bader_spin_density
 _atom_site_hse06_10hf_ddec_charge
 _atom_site_hse06_10hf_ddec_spin_density
 _atom_site_hse06_10hf_ddec_sum_bond_order
 _atom_site_hse06_10hf_magmom
 _atom_site_hse06_bader_spin_density
 _atom_site_hse06_ddec_charge
 _atom_site_hse06_ddec_spin_density
 _atom_site_hse06_ddec_sum_bond_order
 _atom_site_hse06_magmom
 _atom_site_pbe_bader_charge
 _atom_site_pbe_bader_spin_density
 _atom_site_pbe_cm5_charge
 _atom_site_pbe_ddec_charge
 _atom_site_pbe_ddec_spin_density
 _atom_site_pbe_ddec_sum_bond_order
 _atom_site_pbe_magmom
Cd  Cd0  1  0.39023639  0.60945841  0.09448637  1  0  1.13385  0  1.723499  0  0  0.936507  0  2.180764  0  0  0.986659  0  2.133289  0  1.289635  0  0.803689  0.900025  0  2.213894  0
Cd  Cd1  1  0.60976468  0.10945808  0.40551348  1  0  1.133797  0  1.72348  0  0  0.936447  0  2.180738  0  0  0.986602  0  2.13326  0  1.289636  0  0.803671  0.899969  0  2.213865  0
Cd  Cd2  1  0.60976468  0.39054224  0.90551423  1  0  1.133849  0  1.723455  0  0  0.936504  0  2.180722  0  0  0.986658  0  2.133244  0  1.289641  0  0.803677  0.900023  0  2.213851  0
Cd  Cd3  1  0.39023639  0.89054153  0.59448637  1  0  1.133815  0  1.723507  0  0  0.936472  0  2.180782  0  0  0.986626  0  2.133305  0  1.289633  0  0.803679  0.899992  0  2.213912  0
Cd  Cd4  1  0.99999875  0.50000136  0.00000101  1  0  1.12627  0  1.845311  0  0  0.94408  0  2.305387  0  0  0.993031  0  2.253829  0  1.287947  0  0.763109  0.909436  0  2.340864  0
Cd  Cd5  1  0.99999875  0.99999858  0.50000026  1  0  1.126264  0  1.845359  0  0  0.94409  0  2.305413  0  0  0.993041  0  2.253855  0  1.28795  0  0.763104  0.909449  0  2.340888  0
Cd  Cd6  1  0.75765177  0.74038607  0.80447981  1  0  1.152825  0  1.700345  0  0  0.94899  0  2.162092  0  0  1.000727  0  2.110861  0  1.304787  0  0.793775  0.910555  0  2.19811  0
Cd  Cd7  1  0.24234814  0.24038368  0.69552063  1  0  1.152804  0  1.700307  0  0  0.948983  0  2.162033  0  0  1.000716  0  2.110802  0  1.304781  0  0.793758  0.910547  0  2.19805  0
Cd  Cd8  1  0.24234814  0.25961665  0.19552063  1  0  1.152809  0  1.700311  0  0  0.948972  0  2.162038  0  0  1.000706  0  2.11081  0  1.304771  0  0.793764  0.910535  0  2.198057  0
Cd  Cd9  1  0.75765177  0.75961490  0.30447981  1  0  1.152815  0  1.700348  0  0  0.948979  0  2.162096  0  0  1.000714  0  2.110864  0  1.304786  0  0.793763  0.910543  0  2.198114  0
H  H10  1  0.83985831  0.46504476  0.80154321  1  0  0.395911  0  0.909077  0  0  0.357985  0  0.988599  0  0  0.368938  0  0.973074  0  0.619295  0  0.268656  0.350018  0  0.999869  0
H  H11  1  0.16014160  0.96504301  0.69845798  1  0  0.395869  0  0.909134  0  0  0.357941  0  0.988661  0  0  0.368894  0  0.973136  0  0.619289  0  0.268639  0.349974  0  0.99993  0
H  H12  1  0.16014160  0.53495797  0.19845798  1  0  0.395864  0  0.909137  0  0  0.357936  0  0.988666  0  0  0.36889  0  0.973141  0  0.619288  0  0.268632  0.349968  0  0.999937  0
H  H13  1  0.83985947  0.03495557  0.30154263  1  0  0.395894  0  0.909083  0  0  0.357966  0  0.98862  0  0  0.368919  0  0.973096  0  0.619284  0  0.268651  0.349999  0  0.99989  0
H  H14  1  0.38139954  0.01486133  0.88169697  1  0  0.350045  0  0.918998  0  0  0.330451  0  0.982428  0  0  0.337368  0  0.977141  0  0.508757  0  0.30133  0.325585  0  0.986195  0
H  H15  1  0.61859921  0.51486062  0.61830180  1  0  0.349977  0  0.919038  0  0  0.330334  0  0.982539  0  0  0.337251  0  0.977258  0  0.508775  0  0.30129  0.325468  0  0.986306  0
H  H16  1  0.61859921  0.98513829  0.11830255  1  0  0.349989  0  0.919011  0  0  0.330392  0  0.982458  0  0  0.337311  0  0.977169  0  0.508765  0  0.301307  0.325526  0  0.986225  0
H  H17  1  0.38139954  0.48513900  0.38169697  1  0  0.349981  0  0.91903  0  0  0.330379  0  0.982482  0  0  0.337297  0  0.977194  0  0.508769  0  0.301307  0.325513  0  0.986249  0
H  H18  1  0.50145483  0.87542110  0.93322817  1  0  0.340613  0  0.922657  0  0  0.320516  0  0.989587  0  0  0.327623  0  0.983771  0  0.504478  0  0.298813  0.315533  0  0.9937  0
H  H19  1  0.49854392  0.37541974  0.56677134  1  0  0.340698  0  0.922554  0  0  0.320582  0  0.989523  0  0  0.327692  0  0.9837  0  0.504445  0  0.298842  0.3156  0  0.993638  0
H  H20  1  0.49854392  0.12458059  0.06677209  1  0  0.34065  0  0.922631  0  0  0.320536  0  0.989599  0  0  0.327645  0  0.983777  0  0.504468  0  0.298813  0.315553  0  0.993715  0
H  H21  1  0.50145714  0.62457988  0.43322851  1  0  0.340582  0  0.922682  0  0  0.320478  0  0.989627  0  0  0.327586  0  0.983809  0  0.504461  0  0.298791  0.315496  0  0.993739  0
H  H22  1  0.02877588  0.52004068  0.61737394  1  0  0.321239  0  0.915755  0  0  0.301653  0  0.988758  0  0  0.308021  0  0.983796  0  0.476226  0  0.298977  0.297177  0  0.992225  0
H  H23  1  0.97122634  0.02004242  0.88262534  1  0  0.321257  0  0.915683  0  0  0.301669  0  0.988707  0  0  0.308037  0  0.983745  0  0.47622  0  0.298946  0.297193  0  0.992174  0
H  H24  1  0.97122634  0.47995687  0.38262534  1  0  0.32126  0  0.915698  0  0  0.301678  0  0.988716  0  0  0.308046  0  0.983753  0  0.476158  0  0.298944  0.297202  0  0.992183  0
H  H25  1  0.02877472  0.97995926  0.11737377  1  0  0.321264  0  0.91572  0  0  0.301659  0  0.988753  0  0  0.308027  0  0.983789  0  0.476159  0  0.298963  0.297183  0  0.99222  0
H  H26  1  0.05202612  0.69049663  0.59613101  1  0  0.331491  0  0.91891  0  0  0.315253  0  0.98304  0  0  0.321637  0  0.978075  0  0.509173  0  0.297354  0.310766  0  0.986509  0
H  H27  1  0.94797610  0.19049838  0.90386902  1  0  0.331544  0  0.918954  0  0  0.315315  0  0.983059  0  0  0.321698  0  0.978097  0  0.509152  0  0.297353  0.310829  0  0.986529  0
H  H28  1  0.94797610  0.30950091  0.40386827  1  0  0.331573  0  0.918992  0  0  0.315352  0  0.983086  0  0  0.321736  0  0.978121  0  0.509146  0  0.29737  0.310864  0  0.986558  0
H  H29  1  0.05202496  0.80950228  0.09613009  1  0  0.331504  0  0.918899  0  0  0.315271  0  0.983028  0  0  0.321655  0  0.978063  0  0.509127  0  0.297343  0.310783  0  0.9865  0
C  C30  1  0.26632495  0.83673647  0.89558255  1  0  0.574283  0  3.84439  0  0  0.526381  0  4.133961  0  0  0.547972  0  4.143592  0  1.509244  0  0.326551  0.511549  0  4.127521  0
C  C31  1  0.73367380  0.33673510  0.60441771  1  0  0.57441  0  3.844338  0  0  0.526459  0  4.133952  0  0  0.548082  0  4.143541  0  1.509308  0  0.326589  0.511613  0  4.127527  0
C  C32  1  0.73367495  0.16326419  0.10441788  1  0  0.574403  0  3.844319  0  0  0.526457  0  4.133932  0  0  0.548081  0  4.14352  0  1.509219  0  0.326589  0.51161  0  4.127508  0
C  C33  1  0.26632495  0.66326555  0.39558255  1  0  0.574251  0  3.844501  0  0  0.526412  0  4.133983  0  0  0.547987  0  4.14364  0  1.509327  0  0.326576  0.511582  0  4.127542  0
C  C34  1  0.24516418  0.58994353  0.67282921  1  0  0.580384  0  3.800369  0  0  0.533008  0  4.084119  0  0  0.555755  0  4.093484  0  1.491548  0  0.329888  0.517423  0  4.07739  0
C  C35  1  0.75483457  0.08994631  0.82717180  1  0  0.580506  0  3.800179  0  0  0.533084  0  4.084002  0  0  0.555832  0  4.093367  0  1.491449  0  0.329927  0.517499  0  4.077274  0
C  C36  1  0.75483457  0.41005402  0.32717180  1  0  0.580499  0  3.800113  0  0  0.533096  0  4.083914  0  0  0.555843  0  4.09328  0  1.491453  0  0.32991  0.517511  0  4.077186  0
C  C37  1  0.24516649  0.91005434  0.17282881  1  0  0.580416  0  3.800363  0  0  0.53309  0  4.084035  0  0  0.555835  0  4.0934  0  1.49152  0  0.329917  0.517504  0  4.077308  0
S  S38  1  0.72886316  0.71992597  0.04966355  1  0  1.579618  0  5.81144  0  0  1.450782  0  6.338448  0  0  1.507364  0  6.304746  0  3.813642  0  0.561193  1.411621  0  6.360925  0
S  S39  1  0.27113674  0.21992150  0.45033689  1  0  1.579736  0  5.811227  0  0  1.450879  0  6.338266  0  0  1.507463  0  6.304552  0  3.813411  0  0.561212  1.411725  0  6.36074  0
S  S40  1  0.27113559  0.28007883  0.95033596  1  0  1.579807  0  5.810932  0  0  1.450958  0  6.337975  0  0  1.507544  0  6.304256  0  3.813421  0  0.561246  1.411802  0  6.360453  0
S  S41  1  0.72886432  0.78007501  0.54966372  1  0  1.579755  0  5.811198  0  0  1.450907  0  6.338217  0  0  1.507489  0  6.304511  0  3.813626  0  0.561266  1.411751  0  6.360691  0
N  N42  1  0.25727059  0.71690064  0.94729132  1  0  -0.403515  0  3.089145  0  0  -0.3414  0  3.373986  0  0  -0.362288  0  3.389055  0  -0.726397  0  -0.257092  -0.327224  0  3.363658  0
N  N43  1  0.74273047  0.21689928  0.55270854  1  0  -0.403623  0  3.08916  0  0  -0.341474  0  3.37399  0  0  -0.362373  0  3.38905  0  -0.726404  0  -0.257128  -0.327293  0  3.363665  0
N  N44  1  0.74272931  0.28310001  0.05270986  1  0  -0.403583  0  3.089091  0  0  -0.341452  0  3.373955  0  0  -0.362353  0  3.389014  0  -0.726405  0  -0.257108  -0.327272  0  3.363631  0
N  N45  1  0.25727175  0.78310034  0.44729149  1  0  -0.403521  0  3.089104  0  0  -0.341433  0  3.373947  0  0  -0.362318  0  3.389022  0  -0.726436  0  -0.257107  -0.327258  0  3.363617  0
N  N46  1  0.10883279  0.67633593  0.91795582  1  0  -0.12022  0  3.246681  0  0  -0.078315  0  3.532541  0  0  -0.083589  0  3.549927  0  -0.176856  0  -0.128443  -0.0745  0  3.520424  0
N  N47  1  0.89116712  0.17633457  0.58204462  1  0  -0.120163  0  3.246708  0  0  -0.078273  0  3.532564  0  0  -0.083548  0  3.549952  0  -0.176883  0  -0.128476  -0.074458  0  3.520445  0
N  N48  1  0.89116712  0.32366472  0.08204611  1  0  -0.12016  0  3.246661  0  0  -0.078267  0  3.53251  0  0  -0.083542  0  3.549898  0  -0.176848  0  -0.128467  -0.074452  0  3.520392  0
N  N49  1  0.10883279  0.82366505  0.41795507  1  0  -0.12016  0  3.246597  0  0  -0.078261  0  3.532451  0  0  -0.083535  0  3.549836  0  -0.176866  0  -0.128465  -0.074447  0  3.520334  0
N  N50  1  0.03139639  0.76576610  0.85250437  1  0  -0.11314  0  3.216563  0  0  -0.068259  0  3.512608  0  0  -0.072976  0  3.526055  0  -0.210875  0  -0.114863  -0.064593  0  3.502914  0
N  N51  1  0.96860236  0.26576577  0.64749665  1  0  -0.113255  0  3.216621  0  0  -0.068355  0  3.51265  0  0  -0.073072  0  3.526099  0  -0.210916  0  -0.114806  -0.064688  0  3.502955  0
N  N52  1  0.96860236  0.23423352  0.14749740  1  0  -0.11322  0  3.216665  0  0  -0.068314  0  3.51268  0  0  -0.073031  0  3.526131  0  -0.210938  0  -0.114803  -0.064647  0  3.502985  0
N  N53  1  0.03139755  0.73423384  0.35250454  1  0  -0.113214  0  3.21658  0  0  -0.068307  0  3.512601  0  0  -0.073023  0  3.526047  0  -0.210867  0  -0.114824  -0.064641  0  3.502908  0
N  N54  1  0.12547449  0.86822726  0.83503466  1  0  -0.379567  0  2.889724  0  0  -0.344644  0  3.160748  0  0  -0.35719  0  3.16947  0  -0.655418  0  -0.228964  -0.33598  0  3.155042  0
N  N55  1  0.87452426  0.36822590  0.66496486  1  0  -0.37949  0  2.889715  0  0  -0.344564  0  3.160743  0  0  -0.357119  0  3.169456  0  -0.655427  0  -0.228974  -0.335897  0  3.155043  0
N  N56  1  0.87452542  0.13177339  0.16496503  1  0  -0.379571  0  2.889759  0  0  -0.344644  0  3.160787  0  0  -0.3572  0  3.1695  0  -0.655376  0  -0.229011  -0.335977  0  3.155087  0
N  N57  1  0.12547449  0.63177372  0.33503466  1  0  -0.379517  0  2.889795  0  0  -0.344629  0  3.160801  0  0  -0.35717  0  3.16953  0  -0.655483  0  -0.228963  -0.335966  0  3.155097  0
N  N58  1  0.39424756  0.91271070  0.90105426  1  0  -0.707994  0  3.094158  0  0  -0.674557  0  3.338638  0  0  -0.695522  0  3.335331  0  -1.328133  0  -0.596797  -0.659924  0  3.34082  0
N  N59  1  0.60575234  0.41270934  0.59894243  1  0  -0.70805  0  3.094204  0  0  -0.674552  0  3.338763  0  0  -0.695528  0  3.335439  0  -1.328095  0  -0.596802  -0.659913  0  3.340948  0
N  N60  1  0.60575234  0.08729098  0.09894467  1  0  -0.708016  0  3.094199  0  0  -0.674555  0  3.338687  0  0  -0.695532  0  3.335364  0  -1.328093  0  -0.596793  -0.659916  0  3.340873  0
N  N61  1  0.39424641  0.58729131  0.40105409  1  0  -0.707893  0  3.094263  0  0  -0.674467  0  3.338711  0  0  -0.695428  0  3.335413  0  -1.328082  0  -0.596772  -0.659834  0  3.340889  0
N  N62  1  0.35219674  0.69305868  0.69040982  1  0  -0.417191  0  3.052808  0  0  -0.358689  0  3.34562  0  0  -0.379262  0  3.358222  0  -0.707574  0  -0.249745  -0.343742  0  3.336331  0
N  N63  1  0.64780664  0.19306042  0.80959113  1  0  -0.417274  0  3.052762  0  0  -0.358754  0  3.345595  0  0  -0.379325  0  3.358189  0  -0.707656  0  -0.249764  -0.343804  0  3.336304  0
N  N64  1  0.64780548  0.30693990  0.30958946  1  0  -0.417208  0  3.052758  0  0  -0.35869  0  3.34558  0  0  -0.379257  0  3.358167  0  -0.707647  0  -0.249722  -0.343741  0  3.33629  0
N  N65  1  0.35219443  0.80694023  0.19040948  1  0  -0.417229  0  3.05286  0  0  -0.358732  0  3.345649  0  0  -0.379304  0  3.358251  0  -0.707644  0  -0.24975  -0.343783  0  3.33636  0
N  N66  1  0.47395276  0.64251214  0.76036851  1  0  -0.079303  0  3.11044  0  0  -0.053512  0  3.4006  0  0  -0.054165  0  3.41471  0  -0.141515  0  -0.100913  -0.052482  0  3.39082  0
N  N67  1  0.52604714  0.14251285  0.73963193  1  0  -0.079313  0  3.110296  0  0  -0.053519  0  3.400451  0  0  -0.054171  0  3.41456  0  -0.141483  0  -0.100922  -0.052487  0  3.390671  0
N  N68  1  0.52604946  0.35748644  0.23963152  1  0  -0.079333  0  3.110375  0  0  -0.053538  0  3.400534  0  0  -0.054191  0  3.414646  0  -0.141473  0  -0.100918  -0.052508  0  3.390755  0
N  N69  1  0.47395161  0.85748781  0.26036909  1  0  -0.079351  0  3.11045  0  0  -0.053562  0  3.400617  0  0  -0.054216  0  3.414728  0  -0.141483  0  -0.100934  -0.05253  0  3.390835  0
N  N70  1  0.44377581  0.51557160  0.78231277  1  0  -0.094026  0  3.253124  0  0  -0.045992  0  3.546669  0  0  -0.051716  0  3.562773  0  -0.187571  0  -0.118865  -0.041593  0  3.535412  0
N  N71  1  0.55622525  0.01557231  0.71768709  1  0  -0.09397  0  3.253018  0  0  -0.045948  0  3.546561  0  0  -0.051672  0  3.562665  0  -0.187541  0  -0.118854  -0.04155  0  3.535304  0
N  N72  1  0.55622525  0.48442801  0.21768709  1  0  -0.093967  0  3.253023  0  0  -0.045951  0  3.546576  0  0  -0.051675  0  3.56268  0  -0.187554  0  -0.118865  -0.041552  0  3.535319  0
N  N73  1  0.44377465  0.98442834  0.28231260  1  0  -0.093941  0  3.253084  0  0  -0.045909  0  3.546628  0  0  -0.051632  0  3.562732  0  -0.187578  0  -0.118855  -0.04151  0  3.535368  0
N  N74  1  0.30202870  0.47743628  0.72953703  1  0  -0.397052  0  3.036977  0  0  -0.341172  0  3.322025  0  0  -0.361265  0  3.3351  0  -0.713718  0  -0.248706  -0.3266  0  3.312423  0
N  N75  1  0.69797237  0.97743867  0.77046208  1  0  -0.3971  0  3.036845  0  0  -0.341188  0  3.321907  0  0  -0.36128  0  3.334979  0  -0.713655  0  -0.24872  -0.326617  0  3.312307  0
N  N76  1  0.69797237  0.52256127  0.27046208  1  0  -0.397109  0  3.03685  0  0  -0.341196  0  3.321903  0  0  -0.361289  0  3.334976  0  -0.713661  0  -0.248722  -0.326626  0  3.312303  0
N  N77  1  0.30202986  0.02256198  0.22953795  1  0  -0.397078  0  3.036916  0  0  -0.341211  0  3.321957  0  0  -0.361303  0  3.335031  0  -0.71366  0  -0.248711  -0.32664  0  3.312356  0
N  N78  1  0.10462146  0.59577135  0.60754432  1  0  -0.673906  0  3.045288  0  0  -0.64531  0  3.284419  0  0  -0.664627  0  3.281564  0  -1.266864  0  -0.586729  -0.631611  0  3.286006  0
N  N79  1  0.89538076  0.09577207  0.89245496  1  0  -0.674025  0  3.045194  0  0  -0.645443  0  3.284365  0  0  -0.66476  0  3.281507  0  -1.266764  0  -0.586708  -0.631744  0  3.285956  0
N  N80  1  0.89538076  0.40422722  0.39245496  1  0  -0.674072  0  3.045236  0  0  -0.645516  0  3.284408  0  0  -0.664835  0  3.281549  0  -1.266704  0  -0.586732  -0.631816  0  3.285999  0
N  N81  1  0.10462146  0.90422962  0.10754432  1  0  -0.673964  0  3.045205  0  0  -0.64538  0  3.284344  0  0  -0.664697  0  3.281489  0  -1.266738  0  -0.586724  -0.631681  0  3.285936  0
O  O82  1  0.61953866  0.60169350  0.02025153  1  0  -0.749726  0  2.056669  0  0  -0.680031  0  2.349669  0  0  -0.705424  0  2.330959  0  -1.333344  0  -0.361984  -0.661877  0  2.361888  0
O  O83  1  0.38046356  0.10169110  0.47974925  1  0  -0.749744  0  2.056594  0  0  -0.680055  0  2.349606  0  0  -0.705448  0  2.330894  0  -1.333492  0  -0.361987  -0.661907  0  2.361835  0
O  O84  1  0.38046240  0.39831026  0.97974908  1  0  -0.749793  0  2.05659  0  0  -0.680113  0  2.349611  0  0  -0.70551  0  2.330899  0  -1.333499  0  -0.362027  -0.661959  0  2.361827  0
O  O85  1  0.61953866  0.89830644  0.52025078  1  0  -0.749723  0  2.05659  0  0  -0.680061  0  2.349629  0  0  -0.705456  0  2.33092  0  -1.333331  0  -0.362036  -0.661916  0  2.36187  0
O  O86  1  0.71821104  0.81591050  0.96086568  1  0  -0.727097  0  2.036181  0  0  -0.653996  0  2.303446  0  0  -0.678629  0  2.286632  0  -1.325358  0  -0.35658  -0.636866  0  2.314915  0
O  O87  1  0.28178771  0.31590810  0.53913458  1  0  -0.72712  0  2.036123  0  0  -0.653998  0  2.303347  0  0  -0.678637  0  2.286554  0  -1.325157  0  -0.356558  -0.636871  0  2.314818  0
O  O88  1  0.28178771  0.18409326  0.03913458  1  0  -0.727172  0  2.036028  0  0  -0.654046  0  2.303228  0  0  -0.678679  0  2.286417  0  -1.325124  0  -0.356583  -0.636916  0  2.314697  0
O  O89  1  0.71821104  0.68409047  0.46086568  1  0  -0.727132  0  2.03608  0  0  -0.654033  0  2.303359  0  0  -0.678662  0  2.286539  0  -1.325346  0  -0.356611  -0.636903  0  2.314826  0
O  O90  1  0.88980538  0.66960434  0.08721373  1  0  -0.731183  0  2.040154  0  0  -0.666083  0  2.313625  0  0  -0.689325  0  2.294534  0  -1.337199  0  -0.355456  -0.650023  0  2.326606  0
O  O91  1  0.11019453  0.16959986  0.41278596  1  0  -0.731226  0  2.040196  0  0  -0.666112  0  2.313672  0  0  -0.689351  0  2.294576  0  -1.337279  0  -0.355461  -0.650065  0  2.326665  0
O  O92  1  0.11019222  0.33040046  0.91278562  1  0  -0.731197  0  2.040116  0  0  -0.666044  0  2.313549  0  0  -0.689285  0  2.294452  0  -1.337307  0  -0.355421  -0.650004  0  2.326547  0
O  O93  1  0.88980653  0.83039664  0.58721390  1  0  -0.731212  0  2.040136  0  0  -0.666089  0  2.3136  0  0  -0.689329  0  2.294504  0  -1.337229  0  -0.355451  -0.650042  0  2.32659  0
O  O94  1  0.68058443  0.80072996  0.13291556  1  0  -0.754697  0  2.099325  0  0  -0.677707  0  2.377894  0  0  -0.702371  0  2.357561  0  -1.338287  0  -0.359858  -0.660739  0  2.392226  0
O  O95  1  0.31941432  0.30072860  0.36708546  1  0  -0.754747  0  2.099273  0  0  -0.677734  0  2.377827  0  0  -0.702398  0  2.35749  0  -1.338217  0  -0.359869  -0.660764  0  2.392155  0
O  O96  1  0.31941547  0.19927173  0.86708413  1  0  -0.754779  0  2.09922  0  0  -0.677795  0  2.377795  0  0  -0.702459  0  2.357457  0  -1.338235  0  -0.359883  -0.660823  0  2.392122  0
O  O97  1  0.68058328  0.69926998  0.63291463  1  0  -0.754783  0  2.099302  0  0  -0.677746  0  2.377829  0  0  -0.702419  0  2.357508  0  -1.338259  0  -0.359863  -0.660779  0  2.392158  0
O  O98  1  0.80405854  0.51392887  0.85684045  1  0  -0.974709  0  1.853075  0  0  -0.863862  0  2.122612  0  0  -0.900195  0  2.090786  0  -1.221557  0  -0.596767  -0.837171  0  2.143933  0
O  O99  1  0.19594021  0.01392543  0.64315982  1  0  -0.974677  0  1.853123  0  0  -0.863819  0  2.12265  0  0  -0.900152  0  2.090825  0  -1.221566  0  -0.596751  -0.837127  0  2.143968  0
O  O100  1  0.19594021  0.48607593  0.14315907  1  0  -0.974678  0  1.853137  0  0  -0.863808  0  2.122649  0  0  -0.900142  0  2.090826  0  -1.221551  0  -0.596751  -0.837116  0  2.143969  0
O  O101  1  0.80405854  0.98607107  0.35683970  1  0  -0.974686  0  1.853088  0  0  -0.863818  0  2.122615  0  0  -0.900152  0  2.09079  0  -1.221555  0  -0.596758  -0.837126  0  2.143934  0
