# generated using pymatgen
data_HgH8C9N3ClO2
_symmetry_space_group_name_H-M   'P 1'
_cell_length_a   7.09466044
_cell_length_b   10.08331623
_cell_length_c   14.98316341
_cell_angle_alpha   89.99993697
_cell_angle_beta   90.00002189
_cell_angle_gamma   89.99996313
_symmetry_Int_Tables_number   1
_chemical_formula_structural   HgH8C9N3ClO2
_chemical_formula_sum   'Hg4 H32 C36 N12 Cl4 O8'
_cell_volume   1071.86112119
_cell_formula_units_Z   4
loop_
 _symmetry_equiv_pos_site_id
 _symmetry_equiv_pos_as_xyz
  1  'x, y, z'
loop_
 _atom_site_type_symbol
 _atom_site_label
 _atom_site_symmetry_multiplicity
 _atom_site_fract_x
 _atom_site_fract_y
 _atom_site_fract_z
 _atom_site_occupancy
 _atom_site_hle17_bader_spin_density
 _atom_site_hle17_ddec_charge
 _atom_site_hle17_ddec_spin_density
 _atom_site_hle17_ddec_sum_bond_order
 _atom_site_hle17_magmom
 _atom_site_hse06_10hf_bader_spin_density
 _atom_site_hse06_10hf_ddec_charge
 _atom_site_hse06_10hf_ddec_spin_density
 _atom_site_hse06_10hf_ddec_sum_bond_order
 _atom_site_hse06_10hf_magmom
 _atom_site_hse06_bader_spin_density
 _atom_site_hse06_ddec_charge
 _atom_site_hse06_ddec_spin_density
 _atom_site_hse06_ddec_sum_bond_order
 _atom_site_hse06_magmom
 _atom_site_pbe_bader_spin_density
 _atom_site_pbe_cm5_charge
 _atom_site_pbe_ddec_charge
 _atom_site_pbe_ddec_spin_density
 _atom_site_pbe_ddec_sum_bond_order
 _atom_site_pbe_magmom
Hg  Hg0  1  0.44647066  0.75360609  0.05851010  1  0  0.927039  0  1.920928  0  0  0.761687  0  2.413636  0  0  0.820218  0  2.366534  0  0  0.622953  0.72055  0  2.444973  0
Hg  Hg1  1  0.05352910  0.24639268  0.55851081  1  0  0.927014  0  1.920935  0  0  0.761674  0  2.413642  0  0  0.820203  0  2.366543  0  0  0.622946  0.72054  0  2.444974  0
Hg  Hg2  1  0.94647098  0.74639533  0.94148991  1  0  0.927037  0  1.92096  0  0  0.761693  0  2.413668  0  0  0.820225  0  2.366566  0  0  0.622953  0.720557  0  2.445  0
Hg  Hg3  1  0.55353042  0.25360556  0.44148950  1  0  0.927024  0  1.920928  0  0  0.761678  0  2.413635  0  0  0.820206  0  2.366536  0  0  0.622954  0.720545  0  2.444957  0
H  H4  1  0.59470908  0.84348971  0.62502196  1  0  0.111507  0  0.945892  0  0  0.126319  0  0.997881  0  0  0.128273  0  0.998099  0  0  0.108995  0.12485  0  0.997561  0
H  H5  1  0.90529207  0.15651070  0.12502169  1  0  0.111586  0  0.94581  0  0  0.126362  0  0.997847  0  0  0.128317  0  0.998065  0  0  0.109003  0.124892  0  0.997527  0
H  H6  1  0.09470346  0.65650690  0.37497866  1  0  0.111544  0  0.945886  0  0  0.126329  0  0.997893  0  0  0.128284  0  0.998109  0  0  0.108987  0.124857  0  0.997581  0
H  H7  1  0.40529231  0.34349135  0.87497735  1  0  0.111547  0  0.945835  0  0  0.126343  0  0.997845  0  0  0.128298  0  0.998063  0  0  0.109002  0.124873  0  0.997527  0
H  H8  1  0.57531975  0.94073463  0.47241396  1  0  0.094917  0  0.97177  0  0  0.100066  0  1.044043  0  0  0.102844  0  1.042144  0  0  0.092588  0.09818  0  1.044996  0
H  H9  1  0.92468168  0.05926720  0.97241354  1  0  0.094981  0  0.971744  0  0  0.100101  0  1.044057  0  0  0.10288  0  1.042158  0  0  0.092619  0.098217  0  1.045004  0
H  H10  1  0.07531998  0.55926298  0.52758665  1  0  0.094945  0  0.971764  0  0  0.10012  0  1.044014  0  0  0.1029  0  1.042119  0  0  0.092611  0.098234  0  1.044966  0
H  H11  1  0.42468257  0.44073484  0.02758551  1  0  0.094989  0  0.971762  0  0  0.100115  0  1.044061  0  0  0.102895  0  1.042164  0  0  0.092618  0.098228  0  1.04501  0
H  H12  1  0.54813453  0.79896294  0.33875398  1  0  0.088785  0  0.965051  0  0  0.09616  0  1.033334  0  0  0.098834  0  1.032331  0  0  0.092181  0.094181  0  1.034265  0
H  H13  1  0.95186538  0.20104010  0.83875346  1  0  0.088747  0  0.965028  0  0  0.09611  0  1.033334  0  0  0.098784  0  1.032332  0  0  0.092177  0.09413  0  1.034262  0
H  H14  1  0.04813755  0.70103469  0.66124729  1  0  0.088786  0  0.964973  0  0  0.096146  0  1.033277  0  0  0.09882  0  1.032274  0  0  0.092192  0.094167  0  1.034207  0
H  H15  1  0.45186510  0.29896292  0.16124625  1  0  0.08875  0  0.965016  0  0  0.096124  0  1.033307  0  0  0.098798  0  1.032305  0  0  0.092179  0.094146  0  1.034238  0
H  H16  1  0.53811443  0.55254896  0.35120605  1  0  0.108932  0  0.964078  0  0  0.118549  0  1.027741  0  0  0.121468  0  1.02538  0  0  0.097188  0.116386  0  1.029728  0
H  H17  1  0.96188549  0.44745406  0.85120602  1  0  0.108938  0  0.964055  0  0  0.118544  0  1.027729  0  0  0.121463  0  1.025368  0  0  0.0972  0.116382  0  1.029717  0
H  H18  1  0.03811299  0.94744967  0.64879388  1  0  0.108905  0  0.964076  0  0  0.11853  0  1.027735  0  0  0.121449  0  1.025375  0  0  0.097175  0.116365  0  1.029727  0
H  H19  1  0.46188542  0.05254796  0.14879303  1  0  0.108915  0  0.964072  0  0  0.118529  0  1.027736  0  0  0.121448  0  1.025376  0  0  0.097181  0.116364  0  1.029728  0
H  H20  1  0.70286661  0.66621855  0.74523163  1  0  0.082633  0  0.932381  0  0  0.094647  0  1.003591  0  0  0.095776  0  1.002521  0  0  0.108064  0.09383  0  1.004483  0
H  H21  1  0.79713605  0.33378167  0.24523187  1  0  0.082651  0  0.932385  0  0  0.094654  0  1.003579  0  0  0.095782  0  1.002508  0  0  0.108087  0.093843  0  1.004474  0
H  H22  1  0.20286496  0.83378100  0.25476767  1  0  0.08265  0  0.932387  0  0  0.094657  0  1.003585  0  0  0.095786  0  1.002515  0  0  0.108079  0.093841  0  1.004478  0
H  H23  1  0.29713354  0.16621944  0.75476781  1  0  0.082632  0  0.932386  0  0  0.094632  0  1.003581  0  0  0.09576  0  1.00251  0  0  0.108068  0.093819  0  1.004477  0
H  H24  1  0.67695989  0.49437626  0.76632470  1  0  0.086207  0  0.924042  0  0  0.099654  0  0.99194  0  0  0.100684  0  0.991227  0  0  0.114844  0.098949  0  0.99247  0
H  H25  1  0.82304279  0.50562392  0.26632482  1  0  0.086199  0  0.924063  0  0  0.099665  0  0.991916  0  0  0.100694  0  0.991202  0  0  0.114861  0.098965  0  0.992451  0
H  H26  1  0.17695993  0.00562391  0.23367630  1  0  0.086199  0  0.924048  0  0  0.09961  0  0.991965  0  0  0.100641  0  0.991253  0  0  0.114844  0.098909  0  0.992494  0
H  H27  1  0.32304137  0.99437655  0.73367517  1  0  0.086176  0  0.924068  0  0  0.099622  0  0.991944  0  0  0.100651  0  0.99123  0  0  0.114846  0.098923  0  0.992476  0
H  H28  1  0.31883280  0.52597507  0.76827618  1  0  0.111929  0  0.954968  0  0  0.123259  0  1.021439  0  0  0.125998  0  1.019805  0  0  0.090972  0.121313  0  1.022772  0
H  H29  1  0.18116853  0.47402435  0.26827630  1  0  0.111918  0  0.954974  0  0  0.123235  0  1.021444  0  0  0.125976  0  1.019814  0  0  0.090953  0.121293  0  1.022777  0
H  H30  1  0.81883235  0.97402442  0.23172448  1  0  0.111922  0  0.95499  0  0  0.123246  0  1.02146  0  0  0.125984  0  1.019828  0  0  0.090957  0.121305  0  1.022792  0
H  H31  1  0.68116607  0.02597582  0.73172404  1  0  0.11194  0  0.954965  0  0  0.123263  0  1.021434  0  0  0.126005  0  1.019802  0  0  0.09097  0.121321  0  1.022761  0
H  H32  1  0.35098647  0.69753768  0.75389464  1  0  0.113036  0  0.92334  0  0  0.127033  0  0.985932  0  0  0.129026  0  0.985442  0  0  0.103116  0.125752  0  0.986312  0
H  H33  1  0.14901485  0.30246275  0.25389422  1  0  0.11309  0  0.923279  0  0  0.127051  0  0.985889  0  0  0.129046  0  0.985402  0  0  0.103122  0.125776  0  0.986264  0
H  H34  1  0.85098620  0.80246179  0.24610535  1  0  0.113043  0  0.923328  0  0  0.127036  0  0.985921  0  0  0.129028  0  0.985432  0  0  0.103119  0.125762  0  0.986301  0
H  H35  1  0.64901364  0.19753842  0.74610545  1  0  0.113082  0  0.923291  0  0  0.127043  0  0.985914  0  0  0.129038  0  0.985427  0  0  0.103119  0.125768  0  0.986291  0
C  C36  1  0.57760474  0.64219388  0.57225013  1  0  0.093664  0  3.780756  0  0  0.069884  0  4.02123  0  0  0.072897  0  4.043336  0  0  0.108949  0.068109  0  4.006315  0
C  C37  1  0.92239637  0.35780464  0.07225038  1  0  0.093569  0  3.780742  0  0  0.069883  0  4.021167  0  0  0.072894  0  4.043273  0  0  0.108907  0.068098  0  4.006264  0
C  C38  1  0.07759757  0.85780473  0.42775048  1  0  0.093631  0  3.780798  0  0  0.069899  0  4.021238  0  0  0.072898  0  4.043361  0  0  0.108899  0.068126  0  4.006322  0
C  C39  1  0.42239683  0.14219741  0.92774933  1  0  0.093623  0  3.780719  0  0  0.069936  0  4.021135  0  0  0.072948  0  4.043241  0  0  0.108939  0.06815  0  4.006231  0
C  C40  1  0.58177965  0.78077131  0.56626670  1  0  -0.127071  0  3.727831  0  0  -0.14123  0  3.976799  0  0  -0.145161  0  3.998723  0  0  -0.085315  -0.138224  0  3.961411  0
C  C41  1  0.91822005  0.21923416  0.06626772  1  0  -0.127214  0  3.727598  0  0  -0.141374  0  3.976581  0  0  -0.145305  0  3.998504  0  0  -0.08534  -0.13837  0  3.961197  0
C  C42  1  0.08177543  0.71922729  0.43373191  1  0  -0.127139  0  3.727619  0  0  -0.141287  0  3.976612  0  0  -0.145213  0  3.998538  0  0  -0.085336  -0.138283  0  3.96123  0
C  C43  1  0.41822039  0.28076689  0.93373132  1  0  -0.127162  0  3.727619  0  0  -0.14133  0  3.976593  0  0  -0.14526  0  3.998515  0  0  -0.085351  -0.138324  0  3.961206  0
C  C44  1  0.57163252  0.83357742  0.48096360  1  0  -0.035784  0  3.717361  0  0  -0.055839  0  3.972982  0  0  -0.056176  0  3.994735  0  0  -0.085043  -0.055486  0  3.957882  0
C  C45  1  0.92836750  0.16642241  0.98096243  1  0  -0.035746  0  3.717002  0  0  -0.055751  0  3.972561  0  0  -0.056088  0  3.994311  0  0  -0.085006  -0.055396  0  3.957457  0
C  C46  1  0.07162983  0.66641920  0.51903835  1  0  -0.035809  0  3.717126  0  0  -0.055865  0  3.972704  0  0  -0.056207  0  3.994459  0  0  -0.085026  -0.05551  0  3.957604  0
C  C47  1  0.42836849  0.33357963  0.01903728  1  0  -0.035786  0  3.716971  0  0  -0.055804  0  3.972555  0  0  -0.056144  0  3.994307  0  0  -0.084991  -0.05544  0  3.957443  0
C  C48  1  0.55699617  0.75209041  0.40418011  1  0  -0.072567  0  3.764151  0  0  -0.091981  0  4.024901  0  0  -0.095101  0  4.047849  0  0  -0.092627  -0.090147  0  4.01001  0
C  C49  1  0.94300379  0.24791451  0.90418088  1  0  -0.072516  0  3.76442  0  0  -0.091916  0  4.025155  0  0  -0.095036  0  4.048107  0  0  -0.092646  -0.090083  0  4.010265  0
C  C50  1  0.05699487  0.74790920  0.59581983  1  0  -0.072462  0  3.764227  0  0  -0.091854  0  4.024986  0  0  -0.094974  0  4.047937  0  0  -0.092601  -0.090022  0  4.010095  0
C  C51  1  0.44300492  0.25208653  0.09581883  1  0  -0.072471  0  3.764368  0  0  -0.091871  0  4.02509  0  0  -0.094991  0  4.048041  0  0  -0.092642  -0.090046  0  4.010205  0
C  C52  1  0.55175708  0.61508191  0.41005809  1  0  -0.1194  0  3.732581  0  0  -0.140143  0  3.98684  0  0  -0.142042  0  4.006723  0  0  -0.087888  -0.139149  0  3.973921  0
C  C53  1  0.94824288  0.38491705  0.91005676  1  0  -0.119421  0  3.732782  0  0  -0.140166  0  3.987037  0  0  -0.142065  0  4.006919  0  0  -0.087883  -0.139172  0  3.974121  0
C  C54  1  0.05175283  0.88491374  0.58994318  1  0  -0.119445  0  3.732636  0  0  -0.140194  0  3.986919  0  0  -0.142092  0  4.006801  0  0  -0.087921  -0.139199  0  3.974004  0
C  C55  1  0.44824272  0.11508597  0.08994295  1  0  -0.119419  0  3.732865  0  0  -0.140171  0  3.987124  0  0  -0.142068  0  4.007007  0  0  -0.087897  -0.139176  0  3.974209  0
C  C56  1  0.56216356  0.56094290  0.49595452  1  0  0.12678  0  3.815861  0  0  0.119219  0  4.06467  0  0  0.12167  0  4.087974  0  0  0.100233  0.117431  0  4.048983  0
C  C57  1  0.93783648  0.43905989  0.99595582  1  0  0.12687  0  3.815796  0  0  0.119319  0  4.064575  0  0  0.121771  0  4.087878  0  0  0.100277  0.11753  0  4.048891  0
C  C58  1  0.06215778  0.93905472  0.50404341  1  0  0.126804  0  3.81589  0  0  0.119198  0  4.064772  0  0  0.121652  0  4.088077  0  0  0.100244  0.11741  0  4.049082  0
C  C59  1  0.43783770  0.06094116  0.00404389  1  0  0.126747  0  3.815841  0  0  0.119172  0  4.064641  0  0  0.121622  0  4.087946  0  0  0.10024  0.117389  0  4.04895  0
C  C60  1  0.60757385  0.58127628  0.73720664  1  0  0.015873  0  3.634472  0  0  -0.063051  0  3.898572  0  0  -0.05808  0  3.907461  0  0  -0.049471  -0.066182  0  3.892377  0
C  C61  1  0.89242739  0.41872395  0.23720751  1  0  0.015812  0  3.634509  0  0  -0.063038  0  3.89851  0  0  -0.058056  0  3.90739  0  0  -0.049513  -0.066197  0  3.892355  0
C  C62  1  0.10757213  0.91872231  0.26279330  1  0  0.015857  0  3.634532  0  0  -0.063002  0  3.898554  0  0  -0.05803  0  3.907443  0  0  -0.049479  -0.066142  0  3.892382  0
C  C63  1  0.39242778  0.08127711  0.76279286  1  0  0.015864  0  3.634553  0  0  -0.06296  0  3.898538  0  0  -0.057979  0  3.907424  0  0  -0.049456  -0.066116  0  3.892378  0
C  C64  1  0.41753516  0.60778245  0.78142291  1  0  -0.287438  0  3.661566  0  0  -0.325745  0  3.914371  0  0  -0.332662  0  3.921705  0  0  -0.167054  -0.320765  0  3.909012  0
C  C65  1  0.08246759  0.39221794  0.28142308  1  0  -0.287451  0  3.661552  0  0  -0.325711  0  3.914274  0  0  -0.332643  0  3.921627  0  0  -0.166994  -0.320726  0  3.908924  0
C  C66  1  0.91753337  0.89221799  0.21857709  1  0  -0.287428  0  3.661598  0  0  -0.325727  0  3.914353  0  0  -0.332643  0  3.921689  0  0  -0.167028  -0.32075  0  3.909001  0
C  C67  1  0.58246644  0.10778327  0.71857657  1  0  -0.287466  0  3.661581  0  0  -0.325765  0  3.914354  0  0  -0.3327  0  3.921712  0  0  -0.167026  -0.32078  0  3.909001  0
C  C68  1  0.43462833  0.62988323  0.88144384  1  0  0.702308  0  3.873413  0  0  0.655106  0  4.171149  0  0  0.690304  0  4.164815  0  0  0.19368  0.631313  0  4.173664  0
C  C69  1  0.06537591  0.37011700  0.38144402  1  0  0.702311  0  3.873466  0  0  0.655114  0  4.171175  0  0  0.690316  0  4.164842  0  0  0.193629  0.631313  0  4.1737  0
C  C70  1  0.93462789  0.87011819  0.11855617  1  0  0.702282  0  3.873415  0  0  0.655079  0  4.171133  0  0  0.690277  0  4.164802  0  0  0.193674  0.63128  0  4.173656  0
C  C71  1  0.56537467  0.12988322  0.61855630  1  0  0.702272  0  3.873502  0  0  0.655083  0  4.171202  0  0  0.690286  0  4.16487  0  0  0.193633  0.631278  0  4.173735  0
N  N72  1  0.58864410  0.55427037  0.64201914  1  0  0.017193  0  3.507277  0  0  0.130494  0  3.699504  0  0  0.119827  0  3.722102  0  0  -0.11414  0.136358  0  3.686255  0
N  N73  1  0.91135848  0.44573002  0.14201999  1  0  0.017295  0  3.507021  0  0  0.130436  0  3.699372  0  0  0.119768  0  3.721968  0  0  -0.114168  0.136314  0  3.686116  0
N  N74  1  0.08864102  0.94572724  0.35798080  1  0  0.017193  0  3.507198  0  0  0.13049  0  3.699372  0  0  0.119828  0  3.721971  0  0  -0.114137  0.136347  0  3.686134  0
N  N75  1  0.41135756  0.05427104  0.85797971  1  0  0.017277  0  3.507082  0  0  0.130445  0  3.699392  0  0  0.119776  0  3.721988  0  0  -0.11418  0.13632  0  3.68614  0
N  N76  1  0.57881985  0.42875415  0.61313343  1  0  -0.043642  0  2.864155  0  0  -0.066507  0  3.137731  0  0  -0.05928  0  3.150562  0  0  -0.062543  -0.070555  0  3.128578  0
N  N77  1  0.92118129  0.57124629  0.11313353  1  0  -0.043631  0  2.864066  0  0  -0.066453  0  3.137689  0  0  -0.059225  0  3.150518  0  0  -0.06254  -0.070497  0  3.128527  0
N  N78  1  0.07881996  0.07124309  0.38686755  1  0  -0.043637  0  2.864211  0  0  -0.066498  0  3.1378  0  0  -0.059272  0  3.150629  0  0  -0.062554  -0.070543  0  3.128642  0
N  N79  1  0.42118005  0.92875514  0.88686715  1  0  -0.043637  0  2.864113  0  0  -0.066479  0  3.137727  0  0  -0.059252  0  3.150556  0  0  -0.062525  -0.070524  0  3.128567  0
N  N80  1  0.56304880  0.43231555  0.52599629  1  0  -0.199285  0  3.253362  0  0  -0.124472  0  3.537395  0  0  -0.142677  0  3.556242  0  0  -0.185092  -0.112302  0  3.523961  0
N  N81  1  0.93695227  0.56768503  0.02599639  1  0  -0.199399  0  3.253503  0  0  -0.124621  0  3.537564  0  0  -0.142825  0  3.556406  0  0  -0.185132  -0.112448  0  3.524128  0
N  N82  1  0.06304616  0.06768170  0.47400469  1  0  -0.199295  0  3.253422  0  0  -0.124506  0  3.537516  0  0  -0.142708  0  3.556357  0  0  -0.185083  -0.112333  0  3.524078  0
N  N83  1  0.43695110  0.93231639  0.97400362  1  0  -0.19931  0  3.253476  0  0  -0.1245  0  3.537509  0  0  -0.142703  0  3.556352  0  0  -0.185114  -0.112331  0  3.524074  0
Cl  Cl84  1  0.44234795  0.61410922  0.18471982  1  0  -0.467848  0  0.994189  0  0  -0.404854  0  1.272152  0  0  -0.42303  0  1.250742  0  0  -0.240656  -0.392905  0  1.287092  0
Cl  Cl85  1  0.05765331  0.38588934  0.68471908  1  0  -0.467837  0  0.994221  0  0  -0.404845  0  1.27219  0  0  -0.423013  0  1.250763  0  0  -0.240646  -0.392894  0  1.28713  0
Cl  Cl86  1  0.94234805  0.88589120  0.81528019  1  0  -0.467849  0  0.994196  0  0  -0.404847  0  1.272146  0  0  -0.423022  0  1.250736  0  0  -0.240655  -0.392899  0  1.287086  0
Cl  Cl87  1  0.55765326  0.11410890  0.31527989  1  0  -0.467856  0  0.994193  0  0  -0.40487  0  1.272167  0  0  -0.423039  0  1.250744  0  0  -0.240669  -0.392918  0  1.287099  0
O  O88  1  0.59694759  0.63925706  0.91648385  1  0  -0.658648  0  1.999823  0  0  -0.598728  0  2.262573  0  0  -0.630469  0  2.254276  0  0  -0.330465  -0.576083  0  2.266386  0
O  O89  1  0.90305379  0.36074387  0.41648476  1  0  -0.658634  0  1.999762  0  0  -0.598729  0  2.262523  0  0  -0.630473  0  2.254227  0  0  -0.330451  -0.576081  0  2.266341  0
O  O90  1  0.09694720  0.86074649  0.08351610  1  0  -0.658624  0  1.99981  0  0  -0.598706  0  2.262553  0  0  -0.630447  0  2.254258  0  0  -0.330456  -0.576057  0  2.26637  0
O  O91  1  0.40305399  0.13925521  0.58351495  1  0  -0.658629  0  1.999797  0  0  -0.598718  0  2.262545  0  0  -0.630462  0  2.254248  0  0  -0.330462  -0.576065  0  2.266361  0
O  O92  1  0.28253227  0.63888820  0.92644700  1  0  -0.669115  0  2.037945  0  0  -0.609529  0  2.311028  0  0  -0.643149  0  2.302246  0  0  -0.333462  -0.585415  0  2.314928  0
O  O93  1  0.21746777  0.36111096  0.42644721  1  0  -0.669129  0  2.038001  0  0  -0.609549  0  2.311078  0  0  -0.643165  0  2.302291  0  0  -0.333452  -0.585429  0  2.314976  0
O  O94  1  0.78253180  0.86111230  0.07355298  1  0  -0.669118  0  2.037947  0  0  -0.609535  0  2.311029  0  0  -0.643156  0  2.302248  0  0  -0.333469  -0.585415  0  2.314924  0
O  O95  1  0.71746790  0.13888820  0.57355313  1  0  -0.669103  0  2.038004  0  0  -0.609518  0  2.311075  0  0  -0.643133  0  2.302283  0  0  -0.333444  -0.5854  0  2.314983  0
