# generated using pymatgen
data_AlH11C19INO5
_symmetry_space_group_name_H-M   'P 1'
_cell_length_a   6.68020214
_cell_length_b   25.38196950
_cell_length_c   28.77224626
_cell_angle_alpha   90.44987287
_cell_angle_beta   90.01494956
_cell_angle_gamma   89.01935136
_symmetry_Int_Tables_number   1
_chemical_formula_structural   AlH11C19INO5
_chemical_formula_sum   'Al4 H44 C76 I4 N4 O20'
_cell_volume   4877.66180741
_cell_formula_units_Z   4
loop_
 _symmetry_equiv_pos_site_id
 _symmetry_equiv_pos_as_xyz
  1  'x, y, z'
loop_
 _atom_site_type_symbol
 _atom_site_label
 _atom_site_symmetry_multiplicity
 _atom_site_fract_x
 _atom_site_fract_y
 _atom_site_fract_z
 _atom_site_occupancy
 _atom_site_pbe_bader_charge
 _atom_site_pbe_bader_spin_density
 _atom_site_pbe_cm5_charge
 _atom_site_pbe_ddec_charge
 _atom_site_pbe_ddec_spin_density
 _atom_site_pbe_ddec_sum_bond_order
 _atom_site_pbe_magmom
Al  Al0  1  0.79812379  0.74871305  0.74823065  1  2.501181  0  0.39957  1.654547  0  2.581035  0
Al  Al1  1  0.20188023  0.25128723  0.25176830  1  2.501185  0  0.399602  1.654648  0  2.580972  0
Al  Al2  1  0.29769931  0.74594799  0.74830108  1  2.503022  0  0.401472  1.650386  0  2.57379  0
Al  Al3  1  0.70230022  0.25405229  0.25169718  1  2.502949  0  0.40158  1.650453  0  2.573743  0
H  H4  1  0.72041384  0.64964547  0.64128667  1  0.067975  0  0.109876  0.114154  0  1.004714  0
H  H5  1  0.27957230  0.35035287  0.35871123  1  0.067322  0  0.109873  0.114167  0  1.004782  0
H  H6  1  0.70224633  0.58434467  0.57539063  1  0.129952  0  0.105253  0.103061  0  1.03445  0
H  H7  1  0.29775031  0.41565287  0.42460900  1  0.130028  0  0.10521  0.102963  0  1.034496  0
H  H8  1  0.34436089  0.56950047  0.57534683  1  0.135841  0  0.105715  0.103559  0  1.032568  0
H  H9  1  0.65563570  0.43049825  0.42465628  1  0.135638  0  0.105704  0.10352  0  1.032603  0
H  H10  1  0.36118414  0.63499297  0.64127552  1  0.108469  0  0.107628  0.110185  0  1.006732  0
H  H11  1  0.63880796  0.36500577  0.35872725  1  0.108398  0  0.107673  0.110222  0  1.006767  0
H  H12  1  0.72137798  0.64421236  0.84997165  1  0.10592  0  0.107552  0.109989  0  1.008574  0
H  H13  1  0.27863270  0.35580844  0.15004339  1  0.105413  0  0.107602  0.110063  0  1.008635  0
H  H14  1  0.70300046  0.57982779  0.91457632  1  0.05734  0  0.097487  0.093405  0  1.029034  0
H  H15  1  0.29700709  0.42019656  0.08544047  1  0.06241  0  0.097501  0.093385  0  1.028927  0
H  H16  1  0.34626139  0.57979541  0.92575647  1  0.052371  0  0.097284  0.092353  0  1.029102  0
H  H17  1  0.65376257  0.42019298  0.07423165  1  0.052513  0  0.097179  0.092353  0  1.029226  0
H  H18  1  0.36204524  0.64269469  0.85980867  1  0.066993  0  0.106543  0.108913  0  1.009595  0
H  H19  1  0.63797279  0.35729254  0.14017944  1  0.066961  0  0.106578  0.108963  0  1.00956  0
H  H20  1  0.28543270  0.49483404  0.94487697  1  0.021048  0  0.102591  0.102282  0  1.003075  0
H  H21  1  0.71456387  0.50516547  0.05512197  1  0.021097  0  0.102606  0.102312  0  1.003091  0
H  H22  1  0.26428069  0.43088623  0.00830380  1  0.052671  0  0.101948  0.100678  0  1.003705  0
H  H23  1  0.73572029  0.56911524  0.99169759  1  0.052662  0  0.101934  0.100672  0  1.00365  0
H  H24  1  0.74636032  0.17519314  0.38028923  1  0.118802  0  0.112936  0.120493  0  0.98002  0
H  H25  1  0.25363789  0.82480281  0.61970692  1  0.1187  0  0.112961  0.120442  0  0.980023  0
H  H26  1  0.74416505  0.11008408  0.44475908  1  0.076377  0  0.104631  0.108983  0  0.993421  0
H  H27  1  0.25583909  0.88991344  0.55523847  1  0.076299  0  0.104624  0.108923  0  0.993444  0
H  H28  1  0.19086436  0.11383130  0.32988701  1  0.099872  0  0.106754  0.119329  0  1.002509  0
H  H29  1  0.80912927  0.88616664  0.67011297  1  0.09992  0  0.10676  0.119291  0  1.002576  0
H  H30  1  0.17975866  0.04836323  0.48560540  1  0.048959  0  0.095605  0.10141  0  1.008481  0
H  H31  1  0.82023485  0.95163786  0.51439494  1  0.049041  0  0.0956  0.1014  0  1.008455  0
H  H32  1  0.20773513  0.98725600  0.55154511  1  0.066896  0  0.078963  0.076681  0  1.093829  0
H  H33  1  0.79225694  0.01274352  0.44845557  1  0.067009  0  0.078996  0.076753  0  1.093736  0
H  H34  1  0.74382283  0.17562243  0.12194461  1  0.084035  0  0.112855  0.120274  0  0.979621  0
H  H35  1  0.25617974  0.82437705  0.87805051  1  0.084076  0  0.112883  0.120269  0  0.979566  0
H  H36  1  0.74151595  0.11065326  0.05635921  1  0.057833  0  0.104221  0.108372  0  0.993149  0
H  H37  1  0.25848368  0.88934466  0.94363659  1  0.05796  0  0.104208  0.108393  0  0.993152  0
H  H38  1  0.18968373  0.11369988  0.17159842  1  0.112685  0  0.106926  0.119628  0  1.001307  0
H  H39  1  0.81031726  0.88630159  0.82839810  1  0.112554  0  0.106961  0.119716  0  1.001405  0
H  H40  1  0.17842170  0.04780085  0.01492560  1  0.069854  0  0.095365  0.101186  0  1.008635  0
H  H41  1  0.82157957  0.95219313  0.98507402  1  0.069778  0  0.095417  0.101306  0  1.008583  0
H  H42  1  0.20813684  0.98643371  0.94827981  1  0.068913  0  0.078758  0.07695  0  1.095404  0
H  H43  1  0.79186739  0.01356105  0.05171981  1  0.068907  0  0.078685  0.076818  0  1.095416  0
H  H44  1  0.55805120  0.67760513  0.75023830  1  0.593779  0  0.357859  0.436003  0  0.843062  0
H  H45  1  0.44194232  0.32239556  0.24976308  1  0.59376  0  0.357916  0.435985  0  0.843006  0
H  H46  1  0.05111997  0.81713064  0.74758204  1  0.597028  0  0.358419  0.437379  0  0.840544  0
H  H47  1  0.94886903  0.18287086  0.25241830  1  0.597062  0  0.358422  0.437354  0  0.840586  0
C  C48  1  0.54082372  0.81111807  0.68605567  1  1.566963  0  0.268435  0.643804  0  4.099768  0
C  C49  1  0.45918940  0.18887943  0.31394153  1  1.56714  0  0.268295  0.643734  0  4.099874  0
C  C50  1  0.54235047  0.81130098  0.81125357  1  1.556483  0  0.268199  0.645091  0  4.09957  0
C  C51  1  0.45766400  0.18870046  0.18874261  1  1.556805  0  0.268442  0.645435  0  4.099142  0
C  C52  1  0.04943988  0.68422263  0.81110594  1  1.569339  0  0.266339  0.64093  0  4.099585  0
C  C53  1  0.95055652  0.31578121  0.18889442  1  1.569036  0  0.266375  0.64088  0  4.099354  0
C  C54  1  0.04799707  0.68379271  0.68492048  1  1.588816  0  0.267965  0.638731  0  4.101124  0
C  C55  1  0.95198894  0.31620879  0.31507987  1  1.588666  0  0.267856  0.638651  0  4.101372  0
C  C56  1  0.85562655  0.63166863  0.62650915  1  0.007787  0  -0.078147  -0.083893  0  3.965317  0
C  C57  1  0.14436404  0.36833089  0.37348910  1  0.008278  0  -0.078255  -0.084072  0  3.965356  0
C  C58  1  0.84559587  0.59562897  0.59008524  1  -0.066297  0  -0.081148  -0.108051  0  3.962829  0
C  C59  1  0.15439777  0.40436858  0.40991473  1  -0.066398  0  -0.081012  -0.107859  0  3.962736  0
C  C60  1  0.02218204  0.57290478  0.57161964  1  0.027268  0  -0.000796  0.02498  0  3.983613  0
C  C61  1  0.97781163  0.42709198  0.42838068  1  0.027539  0  -0.000861  0.024906  0  3.983544  0
C  C62  1  0.20879645  0.58732451  0.59005228  1  -0.125437  0  -0.07983  -0.108607  0  3.953075  0
C  C63  1  0.79119721  0.41267264  0.40994978  1  -0.125274  0  -0.0798  -0.108455  0  3.953003  0
C  C64  1  0.21798946  0.62350018  0.62651909  1  -0.028817  0  -0.077052  -0.08069  0  3.961252  0
C  C65  1  0.78199967  0.37649777  0.37348263  1  -0.028838  0  -0.077165  -0.08099  0  3.96135  0
C  C66  1  0.04159055  0.64572265  0.64513618  1  -0.060271  0  -0.010018  -0.037838  0  3.960907  0
C  C67  1  0.95839708  0.35427530  0.35486624  1  -0.060033  0  -0.009957  -0.037595  0  3.960966  0
C  C68  1  0.98935615  0.46581338  0.46653568  1  0.974543  0  0.24258  0.244117  0  3.9772  0
C  C69  1  0.01064201  0.53418337  0.53346499  1  0.974412  0  0.242576  0.244155  0  3.977116  0
C  C70  1  0.85713554  0.62963142  0.86688804  1  -0.022031  0  -0.080445  -0.080816  0  3.982437  0
C  C71  1  0.14287827  0.37038621  0.13312351  1  -0.022071  0  -0.080511  -0.080903  0  3.98256  0
C  C72  1  0.84795396  0.59413911  0.90327312  1  -0.047178  0  -0.09101  -0.134794  0  3.984472  0
C  C73  1  0.15205541  0.40587695  0.09673807  1  -0.051858  0  -0.091139  -0.134974  0  3.984754  0
C  C74  1  0.02343001  0.57506948  0.92493065  1  -0.051718  0  -0.001743  0.078853  0  3.9948  0
C  C75  1  0.97658279  0.42493592  0.07507319  1  -0.050915  0  -0.001682  0.078838  0  3.995288  0
C  C76  1  0.20875321  0.59315080  0.90873362  1  -0.008547  0  -0.092026  -0.136532  0  3.983787  0
C  C77  1  0.79126443  0.40684591  0.09126288  1  -0.008521  0  -0.092031  -0.136666  0  3.984423  0
C  C78  1  0.21861081  0.62851644  0.87215203  1  0.02648  0  -0.080624  -0.082253  0  3.983272  0
C  C79  1  0.78140528  0.37148145  0.12784587  1  0.025953  0  -0.080574  -0.082305  0  3.98318  0
C  C80  1  0.04264805  0.64696656  0.85078013  1  -0.086778  0  -0.017623  -0.051518  0  3.983149  0
C  C81  1  0.95736765  0.35304120  0.14922442  1  -0.086427  0  -0.0175  -0.051139  0  3.982559  0
C  C82  1  0.16138287  0.49789037  0.96943923  1  0.013648  0  -0.091143  -0.127004  0  3.995876  0
C  C83  1  0.83862267  0.50210951  0.03056007  1  0.013695  0  -0.091191  -0.127156  0  3.995801  0
C  C84  1  0.14937306  0.46172878  0.00533752  1  -0.067523  0  -0.090526  -0.125627  0  3.993314  0
C  C85  1  0.85063391  0.53827268  0.99466213  1  -0.067762  0  -0.090518  -0.125582  0  3.99311  0
C  C86  1  0.98782741  0.46301857  0.03672745  1  -0.005338  0  -0.008644  0.063795  0  4.007488  0
C  C87  1  0.01218556  0.53698249  0.96327324  1  -0.004753  0  -0.008649  0.063612  0  4.007439  0
C  C88  1  0.62506711  0.14726199  0.38349027  1  -0.037811  0  -0.080209  -0.088955  0  3.980754  0
C  C89  1  0.37492957  0.85273475  0.61650622  1  -0.037666  0  -0.080139  -0.088873  0  3.980911  0
C  C90  1  0.62472220  0.11031780  0.41889613  1  -0.037134  0  -0.085884  -0.12244  0  3.983025  0
C  C91  1  0.37527446  0.88967934  0.58110210  1  -0.037424  0  -0.085927  -0.122377  0  3.982905  0
C  C92  1  0.47324876  0.07258696  0.42293874  1  0.003875  0  -0.005331  0.045688  0  3.970234  0
C  C93  1  0.52674185  0.92741177  0.57706090  1  0.003928  0  -0.005282  0.045866  0  3.97019  0
C  C94  1  0.32096907  0.07362103  0.38895004  1  -0.249103  0  -0.045149  0.014703  0  3.877698  0
C  C95  1  0.67901999  0.92637888  0.61104995  1  -0.248914  0  -0.045146  0.014612  0  3.877864  0
C  C96  1  0.31238876  0.11256957  0.35509643  1  -0.011946  0  -0.09044  -0.131085  0  3.982304  0
C  C97  1  0.68760336  0.88742876  0.64490285  1  -0.011927  0  -0.090482  -0.131041  0  3.982414  0
C  C98  1  0.46536618  0.14935053  0.35199413  1  0.022206  0  -0.014332  -0.031097  0  3.981153  0
C  C99  1  0.53462599  0.85064662  0.64800376  1  0.022329  0  -0.01438  -0.031179  0  3.981518  0
C  C100  1  0.32007299  0.02682524  0.49135316  1  0.013506  0  -0.096456  -0.124541  0  3.996405  0
C  C101  1  0.67991612  0.97317349  0.50864682  1  0.013505  0  -0.096319  -0.124336  0  3.996368  0
C  C102  1  0.33602843  0.99245147  0.52868134  1  -0.04442  0  -0.097018  -0.119083  0  3.976546  0
C  C103  1  0.66395770  0.00754687  0.47131864  1  -0.044771  0  -0.097051  -0.119246  0  3.976483  0
C  C104  1  0.51596118  0.96514390  0.53812167  1  -0.063727  0  -0.015105  0.065865  0  4.008009  0
C  C105  1  0.48402496  0.03485445  0.46187796  1  -0.063375  0  -0.015078  0.066018  0  4.007764  0
C  C106  1  0.62297921  0.14756281  0.11834027  1  -0.025058  0  -0.080645  -0.089723  0  3.981892  0
C  C107  1  0.37702335  0.85243668  0.88165624  1  -0.025282  0  -0.080733  -0.089748  0  3.981945  0
C  C108  1  0.62254798  0.11073502  0.08232766  1  -0.00214  0  -0.086177  -0.122394  0  3.982046  0
C  C109  1  0.37745313  0.88926329  0.91766919  1  -0.001668  0  -0.086123  -0.12244  0  3.982201  0
C  C110  1  0.47163810  0.07283471  0.07782414  1  0.024176  0  -0.005688  0.044783  0  3.974052  0
C  C111  1  0.52836605  0.92716242  0.92217445  1  0.023483  0  -0.005622  0.044857  0  3.974039  0
C  C112  1  0.31958317  0.07369482  0.11185662  1  -0.313084  0  -0.045501  0.014817  0  3.878553  0
C  C113  1  0.68042392  0.92630349  0.88814301  1  -0.312447  0  -0.045467  0.014988  0  3.878314  0
C  C114  1  0.31095080  0.11256364  0.14631239  1  0.025749  0  -0.090035  -0.130028  0  3.981651  0
C  C115  1  0.68905924  0.88743583  0.85368552  1  0.025532  0  -0.090123  -0.130296  0  3.981743  0
C  C116  1  0.46373051  0.14938893  0.14995741  1  0.008198  0  -0.014369  -0.03113  0  3.982367  0
C  C117  1  0.53627957  0.85060976  0.85004014  1  0.008427  0  -0.014414  -0.031094  0  3.982364  0
C  C118  1  0.31932340  0.02651369  0.00892202  1  -0.003107  0  -0.096662  -0.123995  0  3.996602  0
C  C119  1  0.68067636  0.97348069  0.99107794  1  -0.00317  0  -0.096698  -0.124216  0  3.996779  0
C  C120  1  0.33619923  0.99198811  0.97124295  1  -0.049093  0  -0.097523  -0.121544  0  3.979535  0
C  C121  1  0.66380202  0.00800627  0.02875666  1  -0.049125  0  -0.097431  -0.121325  0  3.979351  0
C  C122  1  0.51688172  0.96499452  0.96153347  1  -0.058352  0  -0.015116  0.066763  0  4.009936  0
C  C123  1  0.48311653  0.03500025  0.03846580  1  -0.058136  0  -0.015114  0.066651  0  4.00977  0
I  I124  1  0.11150482  0.01253700  0.38179261  1  0.097183  0  0.079809  -0.03866  0  1.442754  0
I  I125  1  0.88848726  0.98746213  0.61820807  1  0.097105  0  0.079795  -0.038657  0  1.442789  0
I  I126  1  0.11115401  0.01239720  0.11828300  1  0.094446  0  0.079477  -0.038904  0  1.442946  0
I  I127  1  0.88884101  0.98760311  0.88172011  1  0.094465  0  0.079477  -0.038951  0  1.44294  0
N  N128  1  0.18405994  0.51276122  0.51700401  1  -0.532248  0  -0.149974  -0.13858  0  3.209292  0
N  N129  1  0.81593669  0.48723671  0.48299736  1  -0.53202  0  -0.149857  -0.13842  0  3.209266  0
N  N130  1  0.17320905  0.47803585  0.48297863  1  -0.56189  0  -0.150791  -0.142354  0  3.212459  0
N  N131  1  0.82678310  0.52196170  0.51702239  1  -0.561711  0  -0.150785  -0.142399  0  3.212412  0
O  O132  1  0.37470110  0.79496399  0.79643304  1  -1.249581  0  -0.235971  -0.594073  0  2.340436  0
O  O133  1  0.62529991  0.20503669  0.20356417  1  -1.249665  0  -0.235981  -0.59409  0  2.340617  0
O  O134  1  0.71260949  0.79854416  0.70219389  1  -1.261455  0  -0.235645  -0.591836  0  2.338187  0
O  O135  1  0.28739904  0.20145572  0.29780471  1  -1.261481  0  -0.23559  -0.591834  0  2.338006  0
O  O136  1  0.87937214  0.70053187  0.70008257  1  -1.25855  0  -0.235264  -0.594857  0  2.367329  0
O  O137  1  0.12061853  0.29946529  0.29991844  1  -1.2586  0  -0.23523  -0.594941  0  2.367362  0
O  O138  1  0.71451721  0.79805450  0.79558144  1  -1.251563  0  -0.236206  -0.593417  0  2.338091  0
O  O139  1  0.28548972  0.20194813  0.20441475  1  -1.251694  0  -0.236477  -0.59377  0  2.337634  0
O  O140  1  0.88113776  0.69963422  0.79481036  1  -1.264664  0  -0.237271  -0.599839  0  2.362725  0
O  O141  1  0.11886027  0.30036608  0.20519102  1  -1.264685  0  -0.237325  -0.599913  0  2.362673  0
O  O142  1  0.37350408  0.79384186  0.69995489  1  -1.259828  0  -0.235009  -0.59205  0  2.340267  0
O  O143  1  0.62650013  0.20615368  0.30004230  1  -1.259908  0  -0.234937  -0.592004  0  2.340552  0
O  O144  1  0.55125696  0.71561160  0.74806383  1  -1.397532  0  -0.44887  -0.999524  0  2.214426  0
O  O145  1  0.44874104  0.28438948  0.25193721  1  -1.397408  0  -0.448966  -0.999518  0  2.214298  0
O  O146  1  0.22082564  0.69743508  0.79601980  1  -1.260081  0  -0.237401  -0.595162  0  2.333383  0
O  O147  1  0.77917847  0.30256322  0.20397740  1  -1.260131  0  -0.237505  -0.595245  0  2.333471  0
O  O148  1  0.21898478  0.69610076  0.70096477  1  -1.25812  0  -0.236415  -0.592754  0  2.333701  0
O  O149  1  0.78101331  0.30389796  0.29903521  1  -1.257985  0  -0.236371  -0.592662  0  2.333754  0
O  O150  1  0.04815826  0.77906222  0.74839844  1  -1.398983  0  -0.447842  -0.997408  0  2.213566  0
O  O151  1  0.95184124  0.22093885  0.25160086  1  -1.398974  0  -0.447835  -0.997368  0  2.213544  0
