# generated using pymatgen
data_Cd3H48C56(N2O3)4
_symmetry_space_group_name_H-M   'P 1'
_cell_length_a   8.22830272
_cell_length_b   10.94700154
_cell_length_c   15.35984692
_cell_angle_alpha   71.08558700
_cell_angle_beta   74.92485058
_cell_angle_gamma   70.75351766
_symmetry_Int_Tables_number   1
_chemical_formula_structural   Cd3H48C56(N2O3)4
_chemical_formula_sum   'Cd3 H48 C56 N8 O12'
_cell_volume   1217.36160455
_cell_formula_units_Z   1
loop_
 _symmetry_equiv_pos_site_id
 _symmetry_equiv_pos_as_xyz
  1  'x, y, z'
loop_
 _atom_site_type_symbol
 _atom_site_label
 _atom_site_symmetry_multiplicity
 _atom_site_fract_x
 _atom_site_fract_y
 _atom_site_fract_z
 _atom_site_occupancy
 _atom_site_hle17_bader_spin_density
 _atom_site_hle17_ddec_charge
 _atom_site_hle17_ddec_spin_density
 _atom_site_hle17_ddec_sum_bond_order
 _atom_site_hle17_magmom
 _atom_site_hse06_10hf_bader_spin_density
 _atom_site_hse06_10hf_ddec_charge
 _atom_site_hse06_10hf_ddec_spin_density
 _atom_site_hse06_10hf_ddec_sum_bond_order
 _atom_site_hse06_10hf_magmom
 _atom_site_hse06_bader_spin_density
 _atom_site_hse06_ddec_charge
 _atom_site_hse06_ddec_spin_density
 _atom_site_hse06_ddec_sum_bond_order
 _atom_site_hse06_magmom
 _atom_site_pbe_bader_spin_density
 _atom_site_pbe_cm5_charge
 _atom_site_pbe_ddec_charge
 _atom_site_pbe_ddec_spin_density
 _atom_site_pbe_ddec_sum_bond_order
 _atom_site_pbe_magmom
Cd  Cd0  1  0.08667249  0.43380317  0.27571770  1  0  1.097643  0  1.697956  0  0  0.901866  0  2.141078  0  0  0.963519  0  2.087928  0  0  0.762432  0.858181  0  2.177166  0
Cd  Cd1  1  0.91332660  0.56619672  0.72428199  1  0  1.09763  0  1.697929  0  0  0.901851  0  2.141048  0  0  0.963505  0  2.087899  0  0  0.762411  0.858165  0  2.177128  0
Cd  Cd2  1  0.00000019  0.49999997  0.49999986  1  0  1.333158  0  1.641134  0  0  1.16249  0  2.106796  0  0  1.219555  0  2.042711  0  0  0.806504  1.121313  0  2.151243  0
H  H3  1  0.61109538  0.83417439  0.27471464  1  0  0.092978  0  0.95608  0  0  0.106893  0  1.020069  0  0  0.108912  0  1.019703  0  0  0.093007  0.105422  0  1.020402  0
H  H4  1  0.38890589  0.16582648  0.72528517  1  0  0.092971  0  0.956055  0  0  0.106889  0  1.020053  0  0  0.10891  0  1.019687  0  0  0.09301  0.105417  0  1.020386  0
H  H5  1  0.71978687  0.83214660  0.36051951  1  0  0.108358  0  0.93657  0  0  0.124351  0  0.995784  0  0  0.126466  0  0.994941  0  0  0.102374  0.122889  0  0.996382  0
H  H6  1  0.28021349  0.16785328  0.63948001  1  0  0.108357  0  0.936564  0  0  0.124356  0  0.995783  0  0  0.12647  0  0.99494  0  0  0.102384  0.122892  0  0.996381  0
H  H7  1  0.55241116  0.69767823  0.48508450  1  0  0.065305  0  0.938442  0  0  0.083158  0  1.002652  0  0  0.083998  0  1.002857  0  0  0.088523  0.082496  0  1.002638  0
H  H8  1  0.44759045  0.30232164  0.51491485  1  0  0.065312  0  0.93845  0  0  0.083156  0  1.002646  0  0  0.083996  0  1.002852  0  0  0.08853  0.082494  0  1.002629  0
H  H9  1  0.40571915  0.83367277  0.42088733  1  0  0.058692  0  0.965247  0  0  0.07943  0  1.026509  0  0  0.07957  0  1.027932  0  0  0.0874  0.079239  0  1.02565  0
H  H10  1  0.59428246  0.16632710  0.57911201  1  0  0.058706  0  0.965257  0  0  0.079429  0  1.026512  0  0  0.079569  0  1.027934  0  0  0.087387  0.079235  0  1.025651  0
H  H11  1  0.51218694  0.66537583  0.25428661  1  0  0.094501  0  0.940005  0  0  0.111134  0  0.99844  0  0  0.112537  0  0.998644  0  0  0.095047  0.110165  0  0.998335  0
H  H12  1  0.48781147  0.33462606  0.74571272  1  0  0.094511  0  0.939978  0  0  0.111108  0  0.998443  0  0  0.112511  0  0.998648  0  0  0.095045  0.110142  0  0.998332  0
H  H13  1  0.30639489  0.77087852  0.28494475  1  0  0.100151  0  0.969586  0  0  0.117051  0  1.027781  0  0  0.117416  0  1.031221  0  0  0.097121  0.116806  0  1.025464  0
H  H14  1  0.69360639  0.22912235  0.71505506  1  0  0.100157  0  0.969535  0  0  0.117056  0  1.027709  0  0  0.117419  0  1.031152  0  0  0.097118  0.116812  0  1.025393  0
H  H15  1  0.51154636  0.53808775  0.42370462  1  0  0.061196  0  0.967311  0  0  0.077412  0  1.035326  0  0  0.077749  0  1.036327  0  0  0.085681  0.077119  0  1.034722  0
H  H16  1  0.48845273  0.46191214  0.57629441  1  0  0.061194  0  0.967311  0  0  0.07741  0  1.035358  0  0  0.077746  0  1.036359  0  0  0.085688  0.077116  0  1.034757  0
H  H17  1  0.30143389  0.63935654  0.45407121  1  0  0.070089  0  0.947195  0  0  0.086044  0  1.01505  0  0  0.087544  0  1.013906  0  0  0.087368  0.084913  0  1.015946  0
H  H18  1  0.69856612  0.36064434  0.54592877  1  0  0.070051  0  0.947231  0  0  0.086028  0  1.015091  0  0  0.087525  0  1.013951  0  0  0.087352  0.084896  0  1.015987  0
H  H19  1  0.17311018  0.03789451  0.58945495  1  0  0.085082  0  0.957251  0  0  0.098796  0  1.021395  0  0  0.100739  0  1.020766  0  0  0.089376  0.097362  0  1.021939  0
H  H20  1  0.82688799  0.96210439  0.41054444  1  0  0.085087  0  0.957214  0  0  0.098791  0  1.021363  0  0  0.100732  0  1.020736  0  0  0.089371  0.097356  0  1.021907  0
H  H21  1  0.34015187  0.00943066  0.49234140  1  0  0.092828  0  0.935503  0  0  0.109634  0  0.993614  0  0  0.111421  0  0.993036  0  0  0.09588  0.108247  0  0.99423  0
H  H22  1  0.65984882  0.99056821  0.50765895  1  0  0.092805  0  0.935547  0  0  0.109622  0  0.993633  0  0  0.11141  0  0.993055  0  0  0.095876  0.108243  0  0.994243  0
H  H23  1  0.14029243  0.97406719  0.41512379  1  0  0.065057  0  0.95665  0  0  0.083895  0  1.019932  0  0  0.084568  0  1.020731  0  0  0.088957  0.083302  0  1.019507  0
H  H24  1  0.85970986  0.02593068  0.58487526  1  0  0.065074  0  0.956544  0  0  0.083902  0  1.019852  0  0  0.084579  0  1.020651  0  0  0.088961  0.083309  0  1.019424  0
H  H25  1  0.13701756  0.86631581  0.52867426  1  0  0.060059  0  0.951156  0  0  0.079384  0  1.014738  0  0  0.079466  0  1.016193  0  0  0.08784  0.079168  0  1.013828  0
H  H26  1  0.86298599  0.13368205  0.47132397  1  0  0.060032  0  0.951107  0  0  0.079359  0  1.014711  0  0  0.079443  0  1.016168  0  0  0.08783  0.079139  0  1.013799  0
H  H27  1  0.71062397  0.35877202  0.38492154  1  0  0.080716  0  0.950195  0  0  0.089958  0  1.016516  0  0  0.092289  0  1.014469  0  0  0.11745  0.088136  0  1.018227  0
H  H28  1  0.28937638  0.64122785  0.61507862  1  0  0.080717  0  0.950198  0  0  0.089954  0  1.016523  0  0  0.092287  0  1.014474  0  0  0.117441  0.088127  0  1.018243  0
H  H29  1  0.49154674  0.26060055  0.36197337  1  0  0.11026  0  0.958445  0  0  0.118579  0  1.020067  0  0  0.121641  0  1.019472  0  0  0.108199  0.116338  0  1.020685  0
H  H30  1  0.50845202  0.73940034  0.63802679  1  0  0.110265  0  0.958437  0  0  0.118583  0  1.020056  0  0  0.121646  0  1.01946  0  0  0.10821  0.116343  0  1.020677  0
H  H31  1  0.54047351  0.19740916  0.21233320  1  0  0.10607  0  0.93331  0  0  0.119725  0  0.989768  0  0  0.122296  0  0.988135  0  0  0.113557  0.117896  0  0.99085  0
H  H32  1  0.45952456  0.80259375  0.78766464  1  0  0.106081  0  0.933317  0  0  0.119731  0  0.989775  0  0  0.122305  0  0.988138  0  0  0.113553  0.117883  0  0.990872  0
H  H33  1  0.26116041  0.31820005  0.88698876  1  0  0.109007  0  0.943476  0  0  0.120515  0  1.002292  0  0  0.123751  0  0.999819  0  0  0.111539  0.11798  0  1.004512  0
H  H34  1  0.73883902  0.68179884  0.11301176  1  0  0.109046  0  0.943439  0  0  0.120545  0  1.002265  0  0  0.123781  0  0.99979  0  0  0.111553  0.11801  0  1.004489  0
H  H35  1  0.46509524  0.40185735  0.93309908  1  0  0.119836  0  0.956117  0  0  0.127683  0  1.018357  0  0  0.131718  0  1.016189  0  0  0.109161  0.124677  0  1.020197  0
H  H36  1  0.53490385  0.59814254  0.06690126  1  0  0.119825  0  0.956119  0  0  0.127675  0  1.018354  0  0  0.13171  0  1.016189  0  0  0.109156  0.124674  0  1.020198  0
H  H37  1  0.38566071  0.44927525  0.09283375  1  0  0.083519  0  0.954816  0  0  0.09292  0  1.01905  0  0  0.095509  0  1.016543  0  0  0.116223  0.090886  0  1.02113  0
H  H38  1  0.61433838  0.55072464  0.90716659  1  0  0.083542  0  0.954791  0  0  0.092931  0  1.019036  0  0  0.095525  0  1.016525  0  0  0.116241  0.090896  0  1.021109  0
H  H39  1  0.53047399  0.10118093  0.96292888  1  0  0.092136  0  0.984566  0  0  0.102464  0  1.049427  0  0  0.104746  0  1.04929  0  0  0.101191  0.100817  0  1.049507  0
H  H40  1  0.46952602  0.89881994  0.03707241  1  0  0.092167  0  0.984561  0  0  0.102496  0  1.049412  0  0  0.104778  0  1.049274  0  0  0.101212  0.100849  0  1.049494  0
H  H41  1  0.47375668  0.97601526  0.86935382  1  0  0.091664  0  0.976761  0  0  0.094212  0  1.050577  0  0  0.098473  0  1.047233  0  0  0.094514  0.091189  0  1.052987  0
H  H42  1  0.52624149  0.02398362  0.13064818  1  0  0.09168  0  0.976775  0  0  0.094238  0  1.05058  0  0  0.0985  0  1.047237  0  0  0.094529  0.091214  0  1.052994  0
H  H43  1  0.70764201  0.90542055  0.73844685  1  0  0.093309  0  0.965786  0  0  0.102184  0  1.031621  0  0  0.10569  0  1.029206  0  0  0.097092  0.099803  0  1.033015  0
H  H44  1  0.29235776  0.09457732  0.26155581  1  0  0.093303  0  0.96579  0  0  0.102153  0  1.031659  0  0  0.105658  0  1.029244  0  0  0.097084  0.09977  0  1.033057  0
H  H45  1  0.99263197  0.95379020  0.70895797  1  0  0.085524  0  0.96669  0  0  0.098142  0  1.025513  0  0  0.099966  0  1.025809  0  0  0.099344  0.09687  0  1.025377  0
H  H46  1  0.00736747  0.04620868  0.29104386  1  0  0.085518  0  0.966675  0  0  0.09815  0  1.025476  0  0  0.099967  0  1.025791  0  0  0.09934  0.096873  0  1.02534  0
H  H47  1  0.05199160  0.06977513  0.80616228  1  0  0.094611  0  0.945833  0  0  0.107191  0  1.004882  0  0  0.110009  0  1.00358  0  0  0.104037  0.105156  0  1.006063  0
H  H48  1  0.94800657  0.93022375  0.19383971  1  0  0.094667  0  0.945772  0  0  0.1072  0  1.004879  0  0  0.110018  0  1.003575  0  0  0.104041  0.105164  0  1.006062  0
H  H49  1  0.04098035  0.23475775  0.86421691  1  0  0.324209  0  0.921534  0  0  0.303216  0  0.987535  0  0  0.312521  0  0.979145  0  0  0.311395  0.296609  0  0.993524  0
H  H50  1  0.95901748  0.76524214  0.13578425  1  0  0.324183  0  0.92159  0  0  0.303203  0  0.987568  0  0  0.312503  0  0.979183  0  0  0.311385  0.296599  0  0.993557  0
C  C51  1  0.80080163  0.65210093  0.32069836  1  0  0.722791  0  3.802288  0  0  0.674476  0  4.094466  0  0  0.708733  0  4.087711  0  0  0.211688  0.65115  0  4.098261  0
C  C52  1  0.19919872  0.34789895  0.67930116  1  0  0.722897  0  3.802148  0  0  0.674566  0  4.094375  0  0  0.708824  0  4.087617  0  0  0.211711  0.651239  0  4.098172  0
C  C53  1  0.65728466  0.77281382  0.34042099  1  0  -0.274305  0  3.692431  0  0  -0.311006  0  3.942132  0  0  -0.317088  0  3.950256  0  0  -0.169858  -0.306822  0  3.9365  0
C  C54  1  0.34271535  0.22718706  0.65957835  1  0  -0.274277  0  3.692418  0  0  -0.311018  0  3.942156  0  0  -0.317102  0  3.95028  0  0  -0.169876  -0.306831  0  3.936519  0
C  C55  1  0.50621049  0.73903768  0.41757834  1  0  -0.081032  0  3.67397  0  0  -0.123764  0  3.935757  0  0  -0.123801  0  3.949548  0  0  -0.168132  -0.123549  0  3.92621  0
C  C56  1  0.49379238  0.26096218  0.58242083  1  0  -0.081092  0  3.674041  0  0  -0.123735  0  3.935764  0  0  -0.123772  0  3.949556  0  0  -0.168119  -0.12352  0  3.926211  0
C  C57  1  0.30305784  0.57651357  0.29223067  1  0  0.712963  0  3.825266  0  0  0.667157  0  4.117788  0  0  0.701573  0  4.111463  0  0  0.201709  0.643722  0  4.121166  0
C  C58  1  0.69693898  0.42348934  0.70776800  1  0  0.712915  0  3.825183  0  0  0.667095  0  4.117696  0  0  0.701511  0  4.111372  0  0  0.201695  0.643654  0  4.12108  0
C  C59  1  0.39125335  0.66862812  0.30603824  1  0  -0.264149  0  3.678181  0  0  -0.295641  0  3.915445  0  0  -0.30221  0  3.92569  0  0  -0.169946  -0.291159  0  3.908394  0
C  C60  1  0.60874759  0.33137376  0.69396074  1  0  -0.264199  0  3.678231  0  0  -0.295595  0  3.915418  0  0  -0.302164  0  3.925661  0  0  -0.169927  -0.291114  0  3.908366  0
C  C61  1  0.42499305  0.63959570  0.40474012  1  0  -0.09036  0  3.677685  0  0  -0.133086  0  3.938077  0  0  -0.133002  0  3.950907  0  0  -0.173823  -0.132948  0  3.929199  0
C  C62  1  0.57500697  0.36040518  0.59525921  1  0  -0.090264  0  3.677723  0  0  -0.133089  0  3.938172  0  0  -0.133002  0  3.951002  0  0  -0.173826  -0.132953  0  3.929301  0
C  C63  1  0.14703278  0.19842700  0.46411496  1  0  0.717287  0  3.838411  0  0  0.673015  0  4.132942  0  0  0.707829  0  4.1256  0  0  0.209771  0.649307  0  4.13705  0
C  C64  1  0.85296918  0.80157188  0.53588325  1  0  0.717268  0  3.838441  0  0  0.672952  0  4.133044  0  0  0.707764  0  4.125702  0  0  0.209749  0.649237  0  4.137164  0
C  C65  1  0.19880088  0.04951186  0.51382499  1  0  -0.265996  0  3.684852  0  0  -0.305997  0  3.940942  0  0  -0.312001  0  3.949022  0  0  -0.16894  -0.301738  0  3.935258  0
C  C66  1  0.80119947  0.95048803  0.48617388  1  0  -0.266033  0  3.684781  0  0  -0.30599  0  3.940859  0  0  -0.311988  0  3.948941  0  0  -0.168959  -0.301738  0  3.935177  0
C  C67  1  0.09904359  0.97223761  0.48945350  1  0  -0.085931  0  3.676256  0  0  -0.126962  0  3.936328  0  0  -0.127307  0  3.950197  0  0  -0.167502  -0.126546  0  3.926654  0
C  C68  1  0.90095996  0.02776025  0.51054472  1  0  -0.085927  0  3.676093  0  0  -0.127006  0  3.936223  0  0  -0.127368  0  3.950105  0  0  -0.167542  -0.126585  0  3.926543  0
C  C69  1  0.72581771  0.32977607  0.32108515  1  0  0.138037  0  3.692062  0  0  0.104543  0  3.950327  0  0  0.11177  0  3.967845  0  0  0.051002  0.099755  0  3.938437  0
C  C70  1  0.27418105  0.67022482  0.67891500  1  0  0.138034  0  3.692108  0  0  0.104539  0  3.950372  0  0  0.111766  0  3.967891  0  0  0.051007  0.099759  0  3.938483  0
C  C71  1  0.60504671  0.27424059  0.30833009  1  0  -0.110809  0  3.72553  0  0  -0.123487  0  3.982261  0  0  -0.129248  0  4.002581  0  0  -0.082325  -0.119682  0  3.968597  0
C  C72  1  0.39495078  0.72576031  0.69166959  1  0  -0.110765  0  3.725519  0  0  -0.123437  0  3.982242  0  0  -0.129198  0  4.002564  0  0  -0.08231  -0.119636  0  3.968575  0
C  C73  1  0.63094794  0.24045718  0.22545396  1  0  -0.033019  0  3.673165  0  0  -0.059261  0  3.921449  0  0  -0.056579  0  3.937832  0  0  -0.061476  -0.060898  0  3.910187  0
C  C74  1  0.36905013  0.75954572  0.77454518  1  0  -0.033042  0  3.673158  0  0  -0.059293  0  3.921443  0  0  -0.056615  0  3.937824  0  0  -0.061488  -0.060911  0  3.910172  0
C  C75  1  0.77602623  0.26312573  0.15611101  1  0  -0.022408  0  3.789041  0  0  -0.009766  0  4.022991  0  0  -0.011996  0  4.046248  0  0  0.004193  -0.008201  0  4.007284  0
C  C76  1  0.22397218  0.73687616  0.84388897  1  0  -0.022418  0  3.789047  0  0  -0.009764  0  4.022951  0  0  -0.011997  0  4.046212  0  0  0.004177  -0.008201  0  4.007239  0
C  C77  1  0.89217119  0.32032618  0.17472637  1  0  0.123029  0  3.758602  0  0  0.114562  0  4.001914  0  0  0.118571  0  4.024589  0  0  0.115853  0.111778  0  3.986864  0
C  C78  1  0.10782882  0.67967469  0.82527427  1  0  0.123001  0  3.758655  0  0  0.114545  0  4.00192  0  0  0.118554  0  4.024595  0  0  0.115846  0.11176  0  3.986867  0
C  C79  1  0.04713934  0.34357448  0.10660517  1  0  0.133318  0  3.753102  0  0  0.123214  0  3.996181  0  0  0.12742  0  4.01993  0  0  0.11779  0.12083  0  3.980115  0
C  C80  1  0.95286135  0.65642439  0.89339583  1  0  0.133263  0  3.753147  0  0  0.123174  0  3.996202  0  0  0.127377  0  4.019954  0  0  0.117785  0.120797  0  3.980127  0
C  C81  1  0.08228582  0.31380295  0.01873880  1  0  -0.025733  0  3.786281  0  0  -0.012499  0  4.023591  0  0  -0.015234  0  4.04667  0  0  0.002797  -0.011015  0  4.008228  0
C  C82  1  0.91771613  0.68619591  0.98126203  1  0  -0.02559  0  3.786294  0  0  -0.012403  0  4.023596  0  0  -0.015138  0  4.046677  0  0  0.002831  -0.010923  0  4.008242  0
C  C83  1  0.23377277  0.33783629  0.95532427  1  0  -0.02702  0  3.657356  0  0  -0.054202  0  3.909775  0  0  -0.050896  0  3.924923  0  0  -0.062511  -0.056695  0  3.90016  0
C  C84  1  0.76622826  0.66216158  0.04467756  1  0  -0.027166  0  3.65726  0  0  -0.054334  0  3.909683  0  0  -0.051028  0  3.92483  0  0  -0.062559  -0.056824  0  3.900072  0
C  C85  1  0.34546563  0.38591746  0.98058123  1  0  -0.108273  0  3.7099  0  0  -0.124585  0  3.973625  0  0  -0.130233  0  3.992112  0  0  -0.079925  -0.120993  0  3.961777  0
C  C86  1  0.65453506  0.61408141  0.01941912  1  0  -0.10821  0  3.709886  0  0  -0.124528  0  3.973601  0  0  -0.130177  0  3.992091  0  0  -0.079903  -0.120937  0  3.961755  0
C  C87  1  0.30274038  0.41153639  0.06883230  1  0  0.143918  0  3.689376  0  0  0.107293  0  3.950701  0  0  0.116118  0  3.967074  0  0  0.053384  0.10149  0  3.939483  0
C  C88  1  0.69725963  0.58846449  0.93116768  1  0  0.143881  0  3.689308  0  0  0.107265  0  3.950637  0  0  0.116087  0  3.967008  0  0  0.053383  0.101463  0  3.939405  0
C  C89  1  0.96311471  0.25717185  0.00326949  1  0  0.11567  0  3.792937  0  0  0.096202  0  4.048131  0  0  0.09903  0  4.071864  0  0  0.095011  0.094075  0  4.032425  0
C  C90  1  0.03688346  0.74282704  0.99673120  1  0  0.115585  0  3.792988  0  0  0.096174  0  4.048115  0  0  0.098995  0  4.071846  0  0  0.09497  0.094048  0  4.032416  0
C  C91  1  0.81675233  0.22983834  0.06891442  1  0  0.090337  0  3.865831  0  0  0.081919  0  4.129369  0  0  0.08266  0  4.154044  0  0  0.082871  0.081496  0  4.113212  0
C  C92  1  0.18324802  0.77016154  0.93108509  1  0  0.090401  0  3.865727  0  0  0.081985  0  4.129215  0  0  0.082726  0  4.153892  0  0  0.082934  0.081564  0  4.113057  0
C  C93  1  0.82697351  0.15732235  0.95232322  1  0  0.354222  0  3.734782  0  0  0.321613  0  4.008179  0  0  0.336483  0  4.021469  0  0  0.225756  0.311953  0  3.998622  0
C  C94  1  0.17302558  0.84267753  0.04767777  1  0  0.354329  0  3.734738  0  0  0.321773  0  4.008062  0  0  0.33664  0  4.02135  0  0  0.225775  0.312111  0  3.99851  0
C  C95  1  0.79368227  0.09327814  0.89157169  1  0  -0.003636  0  3.798035  0  0  0.01547  0  4.033083  0  0  0.013536  0  4.054537  0  0  -0.005469  0.01661  0  4.018426  0
C  C96  1  0.20631716  0.90672073  0.10843013  1  0  -0.003786  0  3.798128  0  0  0.015314  0  4.033144  0  0  0.013376  0  4.0546  0  0  -0.005496  0.016455  0  4.018487  0
C  C97  1  0.63084361  0.06741783  0.90740421  1  0  -0.088894  0  3.717972  0  0  -0.111122  0  3.957584  0  0  -0.112383  0  3.978224  0  0  -0.084709  -0.109343  0  3.942796  0
C  C98  1  0.36915674  0.93258204  0.09259726  1  0  -0.088877  0  3.717879  0  0  -0.111099  0  3.957485  0  0  -0.112358  0  3.978127  0  0  -0.084715  -0.109319  0  3.942698  0
C  C99  1  0.59903475  0.99963710  0.85349269  1  0  -0.086776  0  3.780808  0  0  -0.094466  0  4.030299  0  0  -0.097441  0  4.05142  0  0  -0.095936  -0.092571  0  4.015411  0
C  C100  1  0.40096595  0.00036176  0.14650962  1  0  -0.086834  0  3.780829  0  0  -0.094542  0  4.030322  0  0  -0.097519  0  4.051443  0  0  -0.095972  -0.09265  0  4.015436  0
C  C101  1  0.72908272  0.95901232  0.78146765  1  0  -0.067985  0  3.748334  0  0  -0.085973  0  4.001885  0  0  -0.087637  0  4.022853  0  0  -0.092882  -0.084011  0  3.986846  0
C  C102  1  0.27091831  0.04098555  0.21853353  1  0  -0.067911  0  3.748341  0  0  -0.085873  0  4.001883  0  0  -0.087537  0  4.022851  0  0  -0.092834  -0.08391  0  3.986839  0
C  C103  1  0.89052010  0.98644033  0.76440972  1  0  -0.078421  0  3.789946  0  0  -0.090962  0  4.044481  0  0  -0.093022  0  4.065842  0  0  -0.094007  -0.089727  0  4.030427  0
C  C104  1  0.10947933  0.01355854  0.23559275  1  0  -0.07845  0  3.789911  0  0  -0.090997  0  4.044439  0  0  -0.093059  0  4.065795  0  0  -0.094012  -0.089752  0  4.030366  0
C  C105  1  0.92373957  0.05243761  0.81894287  1  0  -0.090462  0  3.719985  0  0  -0.115211  0  3.970942  0  0  -0.116106  0  3.99036  0  0  -0.086476  -0.115055  0  3.958542  0
C  C106  1  0.07626020  0.94756026  0.18105848  1  0  -0.090448  0  3.719944  0  0  -0.115169  0  3.97091  0  0  -0.11606  0  3.990324  0  0  -0.086481  -0.115013  0  3.958506  0
N  N107  1  0.86422200  0.35169110  0.25655221  1  0  -0.347356  0  3.249496  0  0  -0.280995  0  3.514014  0  0  -0.299232  0  3.533032  0  0  -0.322959  -0.268398  0  3.500943  0
N  N108  1  0.13577894  0.64831077  0.74344807  1  0  -0.347358  0  3.249552  0  0  -0.280999  0  3.514061  0  0  -0.299237  0  3.533079  0  0  -0.322938  -0.268395  0  3.500974  0
N  N109  1  0.15854685  0.39162672  0.12903855  1  0  -0.360755  0  3.277068  0  0  -0.287806  0  3.545229  0  0  -0.308153  0  3.564355  0  0  -0.326294  -0.274025  0  3.53146  0
N  N110  1  0.84145510  0.60837214  0.87096163  1  0  -0.360716  0  3.27702  0  0  -0.287764  0  3.545154  0  0  -0.308112  0  3.564287  0  0  -0.326308  -0.273977  0  3.531367  0
N  N111  1  0.96726769  0.21014022  0.93009384  1  0  -0.366365  0  3.347229  0  0  -0.305479  0  3.577639  0  0  -0.323378  0  3.590381  0  0  -0.372455  -0.293441  0  3.568707  0
N  N112  1  0.03273140  0.78985966  0.06990715  1  0  -0.366378  0  3.34722  0  0  -0.305537  0  3.577592  0  0  -0.323418  0  3.590316  0  0  -0.372452  -0.293497  0  3.568663  0
N  N113  1  0.73363515  0.16710702  0.03668774  1  0  -0.44292  0  2.937528  0  0  -0.414897  0  3.212087  0  0  -0.429679  0  3.226655  0  0  -0.334012  -0.404774  0  3.202076  0
N  N114  1  0.26636486  0.83289385  0.96331290  1  0  -0.442976  0  2.937456  0  0  -0.414988  0  3.21201  0  0  -0.429771  0  3.226579  0  0  -0.334035  -0.40486  0  3.201994  0
O  O115  1  0.88756758  0.65916661  0.23813259  1  0  -0.651292  0  2.005812  0  0  -0.592034  0  2.252247  0  0  -0.619778  0  2.241798  0  0  -0.321045  -0.57257  0  2.258833  0
O  O116  1  0.11242991  0.34083430  0.76186644  1  0  -0.651331  0  2.005739  0  0  -0.592063  0  2.252194  0  0  -0.619808  0  2.241741  0  0  -0.321019  -0.5726  0  2.258782  0
O  O117  1  0.83260933  0.54394787  0.38611589  1  0  -0.694514  0  2.04732  0  0  -0.618112  0  2.310769  0  0  -0.649141  0  2.298134  0  0  -0.332406  -0.596277  0  2.318661  0
O  O118  1  0.16739035  0.45605402  0.61388195  1  0  -0.694588  0  2.047249  0  0  -0.618177  0  2.310714  0  0  -0.649207  0  2.298078  0  0  -0.332448  -0.596355  0  2.318633  0
O  O119  1  0.31780012  0.56388970  0.21134058  1  0  -0.642714  0  1.911032  0  0  -0.590234  0  2.147335  0  0  -0.617515  0  2.139871  0  0  -0.331166  -0.570904  0  2.151771  0
O  O120  1  0.68219854  0.43611519  0.78865868  1  0  -0.642715  0  1.910942  0  0  -0.590245  0  2.147269  0  0  -0.617523  0  2.139804  0  0  -0.331194  -0.570906  0  2.151696  0
O  O121  1  0.21116797  0.51305944  0.36328420  1  0  -0.720149  0  2.082995  0  0  -0.635695  0  2.348665  0  0  -0.669846  0  2.335845  0  0  -0.346604  -0.611519  0  2.356511  0
O  O122  1  0.78882977  0.48694447  0.63671346  1  0  -0.720086  0  2.082933  0  0  -0.635636  0  2.348608  0  0  -0.669789  0  2.335791  0  0  -0.346575  -0.611465  0  2.356465  0
O  O123  1  0.18657352  0.22902105  0.37525737  1  0  -0.656189  0  1.992138  0  0  -0.587075  0  2.243931  0  0  -0.616782  0  2.231832  0  0  -0.334329  -0.566286  0  2.251406  0
O  O124  1  0.81342270  0.77097988  0.62474118  1  0  -0.656203  0  1.992075  0  0  -0.587081  0  2.243887  0  0  -0.616793  0  2.231801  0  0  -0.334323  -0.566288  0  2.25137  0
O  O125  1  0.06535637  0.27815836  0.51552748  1  0  -0.673465  0  1.994285  0  0  -0.606184  0  2.249308  0  0  -0.636269  0  2.236847  0  0  -0.334566  -0.585303  0  2.25716  0
O  O126  1  0.93464398  0.72184151  0.48447334  1  0  -0.673421  0  1.994405  0  0  -0.606127  0  2.249452  0  0  -0.636209  0  2.236995  0  0  -0.334546  -0.585242  0  2.257309  0
