# generated using pymatgen
data_SmH14(C11O4)2
_symmetry_space_group_name_H-M   'P 1'
_cell_length_a   8.50927568
_cell_length_b   14.23789216
_cell_length_c   15.05931282
_cell_angle_alpha   114.63693840
_cell_angle_beta   106.46853286
_cell_angle_gamma   89.98502099
_symmetry_Int_Tables_number   1
_chemical_formula_structural   SmH14(C11O4)2
_chemical_formula_sum   'Sm2 H28 C44 O16'
_cell_volume   1575.75594316
_cell_formula_units_Z   2
loop_
 _symmetry_equiv_pos_site_id
 _symmetry_equiv_pos_as_xyz
  1  'x, y, z'
loop_
 _atom_site_type_symbol
 _atom_site_label
 _atom_site_symmetry_multiplicity
 _atom_site_fract_x
 _atom_site_fract_y
 _atom_site_fract_z
 _atom_site_occupancy
 _atom_site_pbe_bader_charge
 _atom_site_pbe_bader_spin_density
 _atom_site_pbe_cm5_charge
 _atom_site_pbe_ddec_charge
 _atom_site_pbe_ddec_spin_density
 _atom_site_pbe_ddec_sum_bond_order
 _atom_site_pbe_magmom
Sm  Sm0  1  0.95699288  0.99362341  0.45543550  1  2.238597  0  1.523297  2.149038  0  2.138943  0
Sm  Sm1  1  0.50148348  0.00655695  0.54424504  1  2.244531  0  1.524274  2.14921  0  2.140624  0
H  H2  1  0.79220532  0.19680243  0.32827158  1  0.107691  0  0.106091  0.111677  0  1.005582  0
H  H3  1  0.46463559  0.80373311  0.67209691  1  0.108653  0  0.105791  0.110803  0  1.006466  0
H  H4  1  0.78945551  0.36277679  0.31058115  1  0.039797  0  0.100687  0.097792  0  1.01048  0
H  H5  1  0.47991399  0.63787152  0.68997014  1  0.050641  0  0.101018  0.098811  0  1.01045  0
H  H6  1  0.41228365  0.44530617  0.46019345  1  0.074338  0  0.099125  0.099875  0  1.025976  0
H  H7  1  0.95283767  0.55482237  0.53966658  1  0.05267  0  0.099197  0.09987  0  1.025912  0
H  H8  1  0.41783745  0.28000390  0.47707189  1  0.113331  0  0.099762  0.097699  0  1.05287  0
H  H9  1  0.94117877  0.72004643  0.52269173  1  0.100191  0  0.099485  0.097802  0  1.052934  0
H  H10  1  0.68597214  0.46612632  0.24520765  1  0.027544  0  0.102352  0.100982  0  1.006148  0
H  H11  1  0.44220774  0.53396262  0.75495185  1  0.07167  0  0.102244  0.100692  0  1.005956  0
H  H12  1  0.73362689  0.64252983  0.25534686  1  0.090873  0  0.10791  0.110672  0  1.007308  0
H  H13  1  0.47924713  0.35749584  0.74484274  1  0.095183  0  0.107717  0.110514  0  1.007393  0
H  H14  1  0.57734882  0.77472205  0.52497445  1  0.102739  0  0.108744  0.092014  0  1.049226  0
H  H15  1  0.05311156  0.22556564  0.47484703  1  0.093786  0  0.108618  0.091729  0  1.049873  0
H  H16  1  0.53749792  0.60077578  0.51888182  1  0.073892  0  0.096713  0.094658  0  1.046248  0
H  H17  1  0.01952511  0.39950386  0.48099909  1  0.070812  0  0.096592  0.094326  0  1.045115  0
H  H18  1  0.19698926  0.27899762  0.77227569  1  0.111401  0  0.103666  0.109253  0  1.027501  0
H  H19  1  0.42436138  0.72094983  0.22817582  1  0.124017  0  0.103492  0.109089  0  1.027999  0
H  H20  1  0.27781538  0.44414051  0.92964456  1  0.037992  0  0.097816  0.094854  0  1.021723  0
H  H21  1  0.34859306  0.55537900  0.07129329  1  0.030344  0  0.097958  0.094505  0  1.021767  0
H  H22  1  0.78164255  0.42687307  0.94809196  1  0.039805  0  0.096653  0.093442  0  1.025023  0
H  H23  1  0.83340274  0.57177648  0.05185906  1  0.065351  0  0.096505  0.093187  0  1.024187  0
H  H24  1  0.70130102  0.26515414  0.78588686  1  0.11764  0  0.10784  0.117694  0  1.025103  0
H  H25  1  0.91469576  0.73390938  0.21370391  1  0.115993  0  0.107746  0.117549  0  1.024995  0
H  H26  1  0.24286409  0.07811479  0.35032713  1  0.223092  0  0.146867  0.078759  0  0.996215  0
H  H27  1  0.89241634  0.92208236  0.64952145  1  0.206673  0  0.146477  0.078012  0  0.994503  0
H  H28  1  0.01787296  0.98699179  0.14812561  1  0.622269  0  0.355538  0.382364  0  0.837989  0
H  H29  1  0.87040371  0.01322335  0.85182882  1  0.615908  0  0.355098  0.381892  0  0.836133  0
C  C30  1  0.62011709  0.13252457  0.42254844  1  1.596478  0  0.242767  0.668902  0  4.136917  0
C  C31  1  0.19784676  0.86753071  0.57707065  1  1.582423  0  0.24184  0.667125  0  4.137308  0
C  C32  1  0.60673276  0.22845516  0.40469705  1  -0.031814  0  -0.016076  -0.041278  0  3.950063  0
C  C33  1  0.20258902  0.77179774  0.59527166  1  0.005755  0  -0.016612  -0.041848  0  3.945755  0
C  C34  1  0.70897832  0.25195413  0.35627144  1  -0.056229  0  -0.081848  -0.083143  0  3.979164  0
C  C35  1  0.35341413  0.74851271  0.64403097  1  -0.068606  0  -0.081875  -0.08176  0  3.977112  0
C  C36  1  0.70588889  0.34465639  0.34612400  1  -0.081814  0  -0.093095  -0.141954  0  3.997442  0
C  C37  1  0.36064197  0.65582774  0.65423681  1  0.00618  0  -0.093096  -0.143703  0  3.998769  0
C  C38  1  0.60237514  0.41765159  0.38534882  1  -0.004349  0  -0.004846  0.067878  0  3.999812  0
C  C39  1  0.21798358  0.58267411  0.61482549  1  -0.117489  0  -0.005209  0.068  0  3.997902  0
C  C40  1  0.49683982  0.39181141  0.43118888  1  -0.069085  0  -0.090746  -0.131167  0  3.968134  0
C  C41  1  0.06639997  0.60838313  0.56885148  1  0.003045  0  -0.090282  -0.13037  0  3.965346  0
C  C42  1  0.49835864  0.29841249  0.44017564  1  -0.027999  0  -0.083896  -0.081972  0  3.9729  0
C  C43  1  0.05877546  0.70170710  0.55971131  1  -0.073403  0  -0.083536  -0.082503  0  3.971258  0
C  C44  1  0.61210481  0.52011726  0.38291799  1  -0.008503  0  -0.000587  0.0769  0  3.98934  0
C  C45  1  0.23025045  0.48015692  0.61720411  1  0.015666  0  -0.000972  0.076141  0  3.988549  0
C  C46  1  0.66405270  0.53361239  0.30765233  1  -0.03136  0  -0.088655  -0.134783  0  3.981249  0
C  C47  1  0.35755975  0.46652663  0.69249394  1  -0.041145  0  -0.088359  -0.133916  0  3.980938  0
C  C48  1  0.68865958  0.63205146  0.31196919  1  -0.01873  0  -0.07617  -0.079804  0  3.965781  0
C  C49  1  0.37759583  0.36805060  0.68820104  1  -0.055594  0  -0.075932  -0.077972  0  3.968702  0
C  C50  1  0.66049888  0.72033179  0.39103681  1  -0.026228  0  -0.011644  -0.032828  0  3.951011  0
C  C51  1  0.27015511  0.27983899  0.60903101  1  -0.013353  0  -0.011067  -0.038211  0  3.958657  0
C  C52  1  0.60139153  0.70716627  0.46359290  1  -0.054226  0  -0.073494  -0.076639  0  3.954836  0
C  C53  1  0.13857996  0.29309076  0.53635289  1  -0.07832  0  -0.073778  -0.075405  0  3.956307  0
C  C54  1  0.57799570  0.60863438  0.45958329  1  -0.045313  0  -0.08815  -0.12736  0  3.952554  0
C  C55  1  0.11932371  0.39164083  0.54040875  1  -0.049096  0  -0.087275  -0.125901  0  3.950009  0
C  C56  1  0.70767390  0.82579153  0.40091204  1  1.532313  0  0.209085  0.604547  0  4.202082  0
C  C57  1  0.30720423  0.17431695  0.59909957  1  1.54218  0  0.209947  0.609447  0  4.200288  0
C  C58  1  0.89142344  0.16523526  0.67001532  1  1.571802  0  0.231766  0.648691  0  4.170227  0
C  C59  1  0.22056928  0.83470253  0.32960449  1  1.583193  0  0.23178  0.64909  0  4.169203  0
C  C60  1  0.94377137  0.26242700  0.76848043  1  -0.08584  0  -0.020278  -0.044913  0  3.965364  0
C  C61  1  0.17473245  0.73700421  0.23158049  1  -0.070263  0  -0.020504  -0.044603  0  3.962523  0
C  C62  1  0.10654780  0.31288998  0.81091491  1  0.024568  0  -0.082834  -0.078692  0  3.97652  0
C  C63  1  0.29539167  0.68663960  0.18952302  1  -0.04441  0  -0.082759  -0.079057  0  3.973154  0
C  C64  1  0.15121577  0.40557104  0.90048871  1  -0.036911  0  -0.092917  -0.133992  0  3.981534  0
C  C65  1  0.25082447  0.59383334  0.10006567  1  -0.022497  0  -0.092683  -0.133454  0  3.979413  0
C  C66  1  0.03645300  0.45019860  0.95242251  1  0.001918  0  -0.004749  0.070456  0  3.991203  0
C  C67  1  0.08413919  0.54893349  0.04791995  1  -0.031332  0  -0.005069  0.072023  0  3.991415  0
C  C68  1  0.87402386  0.39682436  0.90970405  1  -0.061619  0  -0.096694  -0.139956  0  3.998843  0
C  C69  1  0.96416842  0.60212521  0.09034403  1  -0.100939  0  -0.097102  -0.140682  0  4.000617  0
C  C70  1  0.82770709  0.30525440  0.81909841  1  -0.048503  0  -0.085222  -0.092838  0  3.979551  0
C  C71  1  0.00810812  0.69389428  0.18075397  1  -0.015793  0  -0.084799  -0.09242  0  3.980871  0
C  C72  1  0.12052670  0.04638160  0.29124725  1  1.466087  0  0.198855  0.513799  0  4.02762  0
C  C73  1  0.82937784  0.95393610  0.70863790  1  1.470416  0  0.200374  0.515868  0  4.027993  0
O  O74  1  0.74964934  0.08921573  0.41555934  1  -1.20993  0  -0.413362  -0.703821  0  2.333294  0
O  O75  1  0.33425118  0.91067793  0.58381279  1  -1.212004  0  -0.412474  -0.70218  0  2.334893  0
O  O76  1  0.50329926  0.10082446  0.44502363  1  -1.20453  0  -0.391378  -0.662107  0  2.289042  0
O  O77  1  0.05843231  0.89921970  0.55455061  1  -1.200787  0  -0.390908  -0.661282  0  2.28752  0
O  O78  1  0.71059367  0.90783812  0.48348921  1  -1.227013  0  -0.436187  -0.779077  0  2.428208  0
O  O79  1  0.22721616  0.09234278  0.51646045  1  -1.221688  0  -0.436278  -0.779762  0  2.426248  0
O  O80  1  0.76025713  0.83450421  0.33362057  1  -1.166168  0  -0.360966  -0.604808  0  2.174477  0
O  O81  1  0.42711771  0.16546247  0.66639837  1  -1.173631  0  -0.362249  -0.606996  0  2.174732  0
O  O82  1  0.99765628  0.12819699  0.62397054  1  -1.192769  0  -0.39513  -0.662657  0  2.281111  0
O  O83  1  0.37282968  0.87194086  0.37574522  1  -1.196817  0  -0.394726  -0.662675  0  2.279671  0
O  O84  1  0.74153943  0.12432647  0.63701607  1  -1.21903  0  -0.420896  -0.703848  0  2.401332  0
O  O85  1  0.10334325  0.87590080  0.36196605  1  -1.212952  0  -0.420782  -0.704094  0  2.400795  0
O  O86  1  0.99016654  0.03605566  0.30819277  1  -1.172391  0  -0.305892  -0.525543  0  2.298776  0
O  O87  1  0.68207916  0.96448158  0.69170490  1  -1.163633  0  -0.305799  -0.52625  0  2.3021  0
O  O88  1  0.12922450  0.01868407  0.19636966  1  -1.117662  0  -0.320829  -0.419745  0  2.219647  0
O  O89  1  0.93321033  0.98143880  0.80349898  1  -1.107677  0  -0.321022  -0.419667  0  2.21749  0
