# generated using pymatgen
data_CuH6C6(N2O)4
_symmetry_space_group_name_H-M   'P 1'
_cell_length_a   4.76019933
_cell_length_b   9.42608204
_cell_length_c   11.88302025
_cell_angle_alpha   90.00011679
_cell_angle_beta   89.99990621
_cell_angle_gamma   103.25744254
_symmetry_Int_Tables_number   1
_chemical_formula_structural   CuH6C6(N2O)4
_chemical_formula_sum   'Cu2 H12 C12 N16 O8'
_cell_volume   518.98163667
_cell_formula_units_Z   2
loop_
 _symmetry_equiv_pos_site_id
 _symmetry_equiv_pos_as_xyz
  1  'x, y, z'
loop_
 _atom_site_type_symbol
 _atom_site_label
 _atom_site_symmetry_multiplicity
 _atom_site_fract_x
 _atom_site_fract_y
 _atom_site_fract_z
 _atom_site_occupancy
 _atom_site_hle17_ddec_charge
 _atom_site_hle17_ddec_spin_density
 _atom_site_hle17_ddec_sum_bond_order
 _atom_site_hle17_magmom
 _atom_site_hse06_10hf_ddec_charge
 _atom_site_hse06_10hf_ddec_spin_density
 _atom_site_hse06_10hf_ddec_sum_bond_order
 _atom_site_hse06_10hf_magmom
 _atom_site_hse06_ddec_charge
 _atom_site_hse06_ddec_spin_density
 _atom_site_hse06_ddec_sum_bond_order
 _atom_site_hse06_magmom
 _atom_site_pbe_cm5_charge
 _atom_site_pbe_ddec_charge
 _atom_site_pbe_ddec_spin_density
 _atom_site_pbe_ddec_sum_bond_order
 _atom_site_pbe_magmom
Cu  Cu0  1  0.00000038  0.50000091  0.49999955  1  0.856562  0.679373  1.763002  0.509  0.823636  0.76796  2.159115  0.62  0.916086  0.829703  2.08588  0.701  0.761064  0.764826  0.725605  2.212104  0.569
Cu  Cu1  1  0.99999667  0.99999957  0.99999962  1  0.856534  0.679376  1.763014  0.509  0.823612  0.767947  2.159124  0.62  0.916062  0.829692  2.085868  0.701  0.761056  0.764816  0.725609  2.212128  0.569
H  H2  1  0.84296904  0.22780651  0.67360727  1  0.149734  -0.000281  0.97812  0.0  0.155192  -0.00015  1.04026  0.0  0.159699  -0.000125  1.034698  0.0  0.149454  0.151475  -0.00016  1.044306  0.0
H  H3  1  0.15702882  0.27219253  0.17360586  1  0.14983  -0.00029  0.978059  0.0  0.155186  -0.00015  1.040294  0.0  0.159749  -0.000125  1.034654  0.0  0.149441  0.15142  -0.000161  1.044404  0.0
H  H4  1  0.15703593  0.77219741  0.32639318  1  0.149818  -0.000282  0.978083  0.0  0.155252  -0.00015  1.04023  0.0  0.159758  -0.000125  1.034662  0.0  0.149439  0.151548  -0.000161  1.044255  0.0
H  H5  1  0.84296635  0.72780377  0.82639375  1  0.149821  -0.000283  0.978063  0.0  0.155241  -0.00015  1.040238  0.0  0.159754  -0.000125  1.034666  0.0  0.149439  0.151498  -0.00016  1.044316  0.0
H  H6  1  0.50083158  0.95297759  0.69163285  1  0.129308  -0.000667  0.90449  -0.001  0.141163  -0.000133  0.96203  0.0  0.143031  -0.000109  0.960399  0.0  0.125876  0.139741  -0.00014  0.962638  0.0
H  H7  1  0.49916330  0.54702003  0.19163422  1  0.129331  -0.000667  0.904493  -0.001  0.141183  -0.000133  0.962024  0.0  0.143052  -0.000109  0.960395  0.0  0.125873  0.139756  -0.00014  0.962639  0.0
H  H8  1  0.49917869  0.04702414  0.30836760  1  0.129231  -0.000651  0.904523  -0.001  0.14108  -0.000133  0.962108  0.0  0.142946  -0.000109  0.960482  0.0  0.125872  0.139683  -0.00014  0.962688  0.0
H  H9  1  0.50082716  0.45297519  0.80836708  1  0.12931  -0.000658  0.90448  -0.001  0.14117  -0.000133  0.96202  0.0  0.143038  -0.000109  0.960392  0.0  0.125887  0.139755  -0.00014  0.962623  0.0
H  H10  1  0.16094083  0.92435441  0.62214388  1  0.134258  -0.000269  0.922604  0.0  0.138118  -1.3e-05  0.996958  0.0  0.14079  -6.6e-05  0.993828  0.0  0.127495  0.136171  4.6e-05  0.998638  0.0
H  H11  1  0.83905577  0.57564633  0.12214506  1  0.134295  -0.000277  0.922583  0.0  0.138155  -1.4e-05  0.996932  0.0  0.140826  -6.6e-05  0.993803  0.0  0.127507  0.136206  4.6e-05  0.998612  0.0
H  H12  1  0.83906943  0.07564732  0.37785658  1  0.134234  -0.000255  0.922605  0.0  0.1381  -1.3e-05  0.996956  0.0  0.140771  -6.6e-05  0.993829  0.0  0.127503  0.136152  4.6e-05  0.998639  0.0
H  H13  1  0.16093620  0.42435216  0.87785456  1  0.134262  -0.000258  0.922622  0.0  0.138136  -1.4e-05  0.99696  0.0  0.140808  -6.6e-05  0.993832  0.0  0.127509  0.136189  4.6e-05  0.998642  0.0
C  C14  1  0.67599012  0.23085985  0.61113668  1  0.166218  -0.004888  3.572452  -0.002  0.09084  -0.000975  3.832702  0.001  0.117339  -0.00255  3.846122  -0.001  0.182539  0.08118  0.000296  3.826339  0.002
C  C15  1  0.32400583  0.26913906  0.11113684  1  0.166076  -0.004823  3.57241  -0.002  0.090817  -0.000979  3.83263  0.001  0.117263  -0.002544  3.846011  -0.001  0.18252  0.081191  0.000295  3.8263  0.002
C  C16  1  0.32401485  0.76914407  0.38886378  1  0.166017  -0.004893  3.57273  -0.002  0.090684  -0.000974  3.832874  0.001  0.117179  -0.002549  3.846288  -0.001  0.18252  0.081022  0.000296  3.826495  0.002
C  C17  1  0.67598463  0.73085616  0.88886362  1  0.166124  -0.004847  3.572564  -0.002  0.090832  -0.000978  3.832765  0.001  0.117321  -0.002544  3.846183  -0.001  0.182603  0.081188  0.000296  3.826417  0.002
C  C18  1  0.32189588  0.00312019  0.67038754  1  -0.167114  0.011084  3.580858  0.012  -0.237557  0.006667  3.820914  0.007  -0.228244  0.004639  3.830391  0.005  -0.045651  -0.236391  0.008275  3.817335  0.009
C  C19  1  0.67810199  0.49687884  0.17038868  1  -0.167184  0.011098  3.580859  0.012  -0.237603  0.006669  3.820917  0.007  -0.228306  0.004638  3.830388  0.005  -0.045649  -0.236434  0.008275  3.817343  0.009
C  C20  1  0.67811229  0.99688154  0.32961291  1  -0.166963  0.011052  3.580718  0.012  -0.23746  0.006669  3.820833  0.007  -0.228152  0.004638  3.83031  0.005  -0.045674  -0.236313  0.008276  3.817246  0.009
C  C21  1  0.32189108  0.50311746  0.82961094  1  -0.167126  0.01106  3.580851  0.012  -0.237585  0.00667  3.820915  0.007  -0.228278  0.004638  3.830393  0.005  -0.045683  -0.236426  0.008276  3.817341  0.009
C  C22  1  0.17994422  0.04442868  0.77846621  1  0.663075  -0.009098  3.875874  -0.009  0.621705  -0.002841  4.188439  -0.004  0.65722  -0.003278  4.182475  -0.003  0.205285  0.597849  -0.002211  4.1905  -0.004
C  C23  1  0.82005852  0.45557277  0.27846718  1  0.663124  -0.009091  3.875807  -0.009  0.621744  -0.002841  4.188369  -0.004  0.65726  -0.003276  4.182406  -0.003  0.205282  0.597889  -0.002211  4.190429  -0.004
C  C24  1  0.82006344  0.95557197  0.22153341  1  0.662984  -0.009088  3.875881  -0.009  0.621613  -0.002843  4.188453  -0.004  0.657126  -0.003276  4.182493  -0.003  0.205215  0.597759  -0.002211  4.190514  -0.004
C  C25  1  0.17993965  0.54443007  0.72153159  1  0.662987  -0.009066  3.875935  -0.009  0.621617  -0.002842  4.188504  -0.004  0.65713  -0.003276  4.182546  -0.003  0.205231  0.597763  -0.002211  4.190569  -0.004
N  N26  1  0.68071384  0.32846031  0.53006814  1  -0.256482  0.058702  3.25967  0.076  -0.221292  0.045137  3.600186  0.062  -0.24972  0.037572  3.612508  0.055  -0.246744  -0.203706  0.049381  3.591502  0.065
N  N27  1  0.31928655  0.17153841  0.03006646  1  -0.256443  0.058654  3.259626  0.076  -0.221255  0.045142  3.600091  0.062  -0.249684  0.037569  3.612425  0.055  -0.246703  -0.203674  0.049381  3.591405  0.065
N  N28  1  0.31928853  0.67154253  0.46993316  1  -0.256467  0.058691  3.259834  0.076  -0.221268  0.045143  3.600296  0.062  -0.2497  0.03757  3.612627  0.055  -0.246715  -0.203681  0.049382  3.591608  0.065
N  N29  1  0.68070702  0.82845898  0.96993147  1  -0.256433  0.058655  3.259728  0.076  -0.221318  0.045143  3.600281  0.062  -0.249748  0.037569  3.612603  0.055  -0.246746  -0.203739  0.049381  3.5916  0.065
N  N30  1  0.43395912  0.28555465  0.46906771  1  -0.021803  -0.001594  2.919832  0.0  -0.026927  -8.8e-05  3.243091  0.001  -0.022626  -0.001157  3.249657  0.0  -0.06245  -0.029805  0.000855  3.237265  0.002
N  N31  1  0.56604044  0.21444613  0.96906675  1  -0.021823  -0.001524  2.919888  0.0  -0.026939  -9.6e-05  3.243151  0.001  -0.022636  -0.001148  3.249717  0.0  -0.062471  -0.029816  0.000855  3.237326  0.002
N  N32  1  0.56604274  0.71444709  0.53093359  1  -0.021781  -0.001582  2.91987  0.0  -0.026913  -9.2e-05  3.243135  0.001  -0.022612  -0.001154  3.249705  0.0  -0.062417  -0.029791  0.000854  3.237307  0.002
N  N33  1  0.43395153  0.78555236  0.03093118  1  -0.021825  -0.001535  2.919931  0.0  -0.026925  -9.7e-05  3.243206  0.001  -0.022624  -0.001149  3.249774  0.0  -0.06242  -0.029802  0.000854  3.237377  0.002
N  N34  1  0.28036121  0.16545655  0.51048895  1  -0.100018  0.004054  2.845453  0.006  -0.115651  0.003053  3.138228  0.004  -0.104389  0.001874  3.152667  0.003  -0.061741  -0.115817  0.004205  3.132821  0.005
N  N35  1  0.71963924  0.33454213  0.01048811  1  -0.099988  0.004035  2.845394  0.006  -0.115621  0.003051  3.138201  0.004  -0.104373  0.001874  3.152634  0.003  -0.061708  -0.115789  0.004205  3.132796  0.005
N  N36  1  0.71964275  0.83454519  0.48951319  1  -0.099943  0.004062  2.845387  0.006  -0.115602  0.003052  3.138173  0.004  -0.104347  0.001872  3.152605  0.003  -0.061751  -0.115765  0.004205  3.132765  0.005
N  N37  1  0.28035433  0.66545527  0.98951067  1  -0.099959  0.004041  2.845487  0.006  -0.115589  0.003053  3.138278  0.004  -0.104333  0.00187  3.152709  0.003  -0.061748  -0.115759  0.004205  3.13287  0.005
N  N38  1  0.43041651  0.12913916  0.59931477  1  0.055512  0.002792  3.552036  0.003  0.173522  0.001827  3.739697  0.002  0.130526  0.00143  3.801399  0.002  -0.116595  0.179658  0.002165  3.726318  0.003
N  N39  1  0.56958417  0.37086081  0.09931493  1  0.055556  0.002772  3.552027  0.003  0.173503  0.001834  3.739723  0.002  0.130548  0.001425  3.801389  0.002  -0.116604  0.179642  0.002165  3.726333  0.003
N  N40  1  0.56958956  0.87086258  0.40068653  1  0.055503  0.00279  3.552122  0.003  0.17356  0.001824  3.739682  0.002  0.130589  0.001432  3.80135  0.002  -0.11655  0.17968  0.002165  3.72634  0.003
N  N41  1  0.43041099  0.62913549  0.90068553  1  0.055505  0.002787  3.552106  0.003  0.173482  0.00183  3.739782  0.002  0.130508  0.001429  3.801455  0.002  -0.116616  0.179623  0.002165  3.726392  0.003
O  O42  1  0.18417528  0.95459875  0.85963486  1  -0.583417  0.100572  2.080019  0.139  -0.561149  0.06429  2.372649  0.097  -0.607105  0.04881  2.369788  0.08  -0.322516  -0.53061  0.074126  2.375433  0.106
O  O43  1  0.81581750  0.54540033  0.35963686  1  -0.583427  0.100565  2.080025  0.139  -0.561187  0.064286  2.372687  0.097  -0.607141  0.048808  2.369824  0.08  -0.322526  -0.530642  0.074125  2.375472  0.106
O  O44  1  0.81582089  0.04539973  0.14036307  1  -0.58334  0.100579  2.079947  0.139  -0.561093  0.064292  2.372575  0.097  -0.607052  0.048812  2.36972  0.08  -0.322479  -0.530555  0.074129  2.375358  0.106
O  O45  1  0.18418227  0.45460142  0.64036192  1  -0.583383  0.100575  2.07995  0.139  -0.561133  0.064292  2.372588  0.097  -0.60709  0.048812  2.369732  0.08  -0.322515  -0.530588  0.074129  2.375374  0.106
O  O46  1  0.07157052  0.15249690  0.78024955  1  -0.597576  -0.000123  1.968627  0.002  -0.569803  -0.000749  2.212808  0.001  -0.594584  -0.001894  2.204676  0.0  -0.315507  -0.552183  0.000358  2.217294  0.002
O  O47  1  0.92843742  0.34750672  0.28024943  1  -0.597642  -0.000123  1.968598  0.002  -0.569807  -0.000751  2.212749  0.001  -0.594605  -0.001892  2.204618  0.0  -0.3155  -0.552172  0.000358  2.217233  0.002
O  O48  1  0.92843395  0.84750593  0.21975007  1  -0.597539  -0.000123  1.968691  0.002  -0.569733  -0.00075  2.212849  0.001  -0.594512  -0.001894  2.204718  0.0  -0.315471  -0.552118  0.000357  2.217332  0.002
O  O49  1  0.07157074  0.65249501  0.71974934  1  -0.597536  -0.000132  1.968747  0.002  -0.569733  -0.000749  2.212905  0.001  -0.594515  -0.001895  2.204778  0.0  -0.31546  -0.552104  0.000357  2.217389  0.002
