# generated using pymatgen
data_MnHgH12C12(SN2)4
_symmetry_space_group_name_H-M   'P 1'
_cell_length_a   8.78380336
_cell_length_b   8.84801105
_cell_length_c   14.20535042
_cell_angle_alpha   99.29821120
_cell_angle_beta   98.13553086
_cell_angle_gamma   106.31386884
_symmetry_Int_Tables_number   1
_chemical_formula_structural   MnHgH12C12(SN2)4
_chemical_formula_sum   'Mn2 Hg2 H24 C24 S8 N16'
_cell_volume   1025.09361097
_cell_formula_units_Z   2
loop_
 _symmetry_equiv_pos_site_id
 _symmetry_equiv_pos_as_xyz
  1  'x, y, z'
loop_
 _atom_site_type_symbol
 _atom_site_label
 _atom_site_symmetry_multiplicity
 _atom_site_fract_x
 _atom_site_fract_y
 _atom_site_fract_z
 _atom_site_occupancy
 _atom_site_hle17_ddec_charge
 _atom_site_hle17_ddec_spin_density
 _atom_site_hle17_ddec_sum_bond_order
 _atom_site_hle17_magmom
 _atom_site_hse06_10hf_ddec_charge
 _atom_site_hse06_10hf_ddec_spin_density
 _atom_site_hse06_10hf_ddec_sum_bond_order
 _atom_site_hse06_10hf_magmom
 _atom_site_hse06_ddec_charge
 _atom_site_hse06_ddec_spin_density
 _atom_site_hse06_ddec_sum_bond_order
 _atom_site_hse06_magmom
 _atom_site_pbe_cm5_charge
 _atom_site_pbe_ddec_charge
 _atom_site_pbe_ddec_spin_density
 _atom_site_pbe_ddec_sum_bond_order
 _atom_site_pbe_magmom
Mn  Mn0  1  0.00001740  0.50011232  0.00008944  1  1.066771  4.824953  2.072345  4.648  0.909193  4.706227  2.598884  4.477  0.956289  4.758852  2.533351  4.551  0.662202  0.874606  4.650336  2.646887  4.402
Mn  Mn1  1  0.51164310  0.00085876  0.50332533  1  0.784843  -1.138243  3.231231  -1.098  0.731701  -1.061115  3.775803  -1.013  0.763864  -1.055568  3.719041  -1.005  0.820888  0.71325  -1.051312  3.807103  -1.003
Hg  Hg2  1  0.53854647  0.46170601  0.25225375  1  0.472892  0.006831  2.154894  0.011  0.349218  0.007172  2.639162  0.009  0.386556  0.003974  2.620328  0.005  0.40316  0.321279  0.010829  2.652039  0.014
Hg  Hg3  1  0.45932338  0.53690053  0.74726417  1  0.471639  0.006401  2.156972  0.01  0.348076  0.007259  2.64136  0.009  0.385225  0.004161  2.622514  0.005  0.403266  0.320354  0.010836  2.654201  0.014
H  H4  1  0.73459855  0.14655365  0.85517491  1  0.099772  -6.8e-05  0.959253  0.0  0.107355  0.000166  1.023439  0.0  0.10938  7.6e-05  1.023028  0.0  0.111181  0.105875  0.000249  1.023837  0.0
H  H5  1  0.84054770  0.26357963  0.64269453  1  0.107759  0.00013  0.958539  0.0  0.115224  9.6e-05  1.021701  0.0  0.115584  7.1e-05  1.02289  0.0  0.117935  0.115043  0.000112  1.020892  0.0
H  H6  1  0.26535080  0.85336928  0.14481232  1  0.099204  -5.7e-05  0.960348  0.0  0.106483  0.000172  1.025074  0.0  0.108569  8.2e-05  1.02465  0.0  0.110733  0.104918  0.000254  1.025566  0.0
H  H7  1  0.15414969  0.73519588  0.35576311  1  0.104485  7.1e-05  0.960205  0.0  0.1125  7.6e-05  1.023225  0.0  0.113119  4.5e-05  1.024222  0.0  0.114609  0.112212  0.000103  1.022453  0.0
H  H8  1  0.83399752  0.87553443  0.80515705  1  0.099676  0.000237  0.992733  0.0  0.105228  0.000419  1.065662  0.0  0.107543  0.000321  1.064813  0.0  0.104316  0.103645  0.000517  1.066243  0.0
H  H9  1  0.11566707  0.17158313  0.69258810  1  0.10263  9.5e-05  0.989401  0.0  0.107846  -7e-05  1.061699  0.0  0.108991  -1.2e-05  1.062684  0.0  0.1077  0.107094  -0.000168  1.060897  0.0
H  H10  1  0.16586749  0.12427090  0.19501165  1  0.099703  0.000252  0.991559  0.0  0.105223  0.000426  1.064549  0.0  0.107476  0.000328  1.06381  0.0  0.104364  0.103683  0.000525  1.065048  0.0
H  H11  1  0.87947748  0.82847314  0.30630776  1  0.099983  3.5e-05  0.992987  0.0  0.105594  -0.000105  1.065283  0.0  0.106829  -5.7e-05  1.066056  0.0  0.105515  0.104817  -0.000183  1.064543  0.0
H  H12  1  0.22557530  0.25477719  0.98554168  1  0.081558  -0.000172  0.976474  0.0  0.084237  0.000217  1.056031  0.0  0.08612  0.000104  1.053894  0.0  0.120461  0.083011  0.000322  1.057386  0.0
H  H13  1  0.74074558  0.77074989  0.51647962  1  0.08889  0.000491  0.97321  0.001  0.092935  1.6e-05  1.050474  0.0  0.09388  3.7e-05  1.048835  0.0  0.124655  0.092188  -2.3e-05  1.051768  0.0
H  H14  1  0.77436702  0.74521755  0.01443431  1  0.080957  -0.000172  0.977454  0.0  0.083747  0.000216  1.05699  0.0  0.085657  0.000104  1.054808  0.0  0.120293  0.082513  0.00032  1.058359  0.0
H  H15  1  0.25652667  0.22763427  0.48219058  1  0.084886  0.000219  0.974395  0.0  0.089508  4.5e-05  1.050954  0.0  0.090582  4.5e-05  1.049395  0.0  0.121433  0.088768  3.1e-05  1.052069  0.0
H  H16  1  0.21590077  0.94072425  0.82159940  1  0.08765  8e-05  0.967802  0.0  0.104492  0.000208  1.039565  0.0  0.105277  0.000149  1.039114  0.0  0.091388  0.103752  0.000282  1.040128  0.0
H  H17  1  0.05994617  0.79583455  0.67956011  1  0.094769  -0.000133  0.959233  0.0  0.113936  -0.000229  1.026347  0.0  0.112951  -0.000187  1.027715  0.0  0.09692  0.114735  -0.00027  1.025245  0.0
H  H18  1  0.78408767  0.05909620  0.17841588  1  0.088436  8.9e-05  0.966519  0.0  0.105319  0.000216  1.03803  0.0  0.106058  0.000155  1.037646  0.0  0.09197  0.104611  0.00029  1.038548  0.0
H  H19  1  0.93855154  0.20605023  0.31986761  1  0.091744  -2.9e-05  0.962704  0.0  0.111529  -5.7e-05  1.029362  0.0  0.110607  -5.2e-05  1.030677  0.0  0.095451  0.1123  -6e-05  1.02828  0.0
H  H20  1  0.09692470  0.81110061  0.88728189  1  0.11402  -0.000346  0.966901  0.0  0.133226  -0.000248  1.029663  0.0  0.133054  -0.000306  1.031526  0.0  0.107326  0.133302  -0.000181  1.028399  0.0
H  H21  1  0.18668110  0.91173080  0.61087469  1  0.118124  2.9e-05  0.956146  0.0  0.13614  4e-06  1.019104  0.0  0.135875  2.2e-05  1.02111  0.0  0.110204  0.136114  -1.3e-05  1.01794  0.0
H  H22  1  0.90300147  0.18885130  0.11279334  1  0.11394  -0.000341  0.966831  0.0  0.133142  -0.000249  1.029527  0.0  0.133014  -0.000307  1.031333  0.0  0.107286  0.133208  -0.000182  1.028278  0.0
H  H23  1  0.81063038  0.09034478  0.38788140  1  0.115215  3.9e-05  0.964466  0.0  0.133779  2.8e-05  1.026922  0.0  0.13367  5e-05  1.028751  0.0  0.10999  0.13371  7e-06  1.025796  0.0
H  H24  1  0.26443772  0.98079343  0.95075921  1  0.096354  2.2e-05  0.972084  0.0  0.111263  9.3e-05  1.047692  0.0  0.111609  2.7e-05  1.048434  0.0  0.095753  0.110941  0.000174  1.04739  0.0
H  H25  1  0.01960585  0.73967405  0.55044124  1  0.10121  2.2e-05  0.963772  0.0  0.116606  4.4e-05  1.037829  0.0  0.116634  2.1e-05  1.038902  0.0  0.099079  0.116496  7.6e-05  1.037217  0.0
H  H26  1  0.73551844  0.01916809  0.04925000  1  0.095806  2.5e-05  0.972143  0.0  0.110699  9.5e-05  1.047883  0.0  0.11107  2.9e-05  1.048611  0.0  0.095478  0.110365  0.000177  1.047587  0.0
H  H27  1  0.97878324  0.26087424  0.44894959  1  0.098328  3.7e-05  0.963708  0.0  0.114147  7e-05  1.037736  0.0  0.11427  4e-05  1.038684  0.0  0.09788  0.114011  0.000112  1.037186  0.0
C  C28  1  0.85117114  0.12875602  0.87528562  1  0.006857  0.001089  3.748918  0.002  -0.02272  0.002892  4.011698  0.003  -0.021008  0.002333  4.032479  0.003  -0.000821  -0.023856  0.003387  3.997376  0.004
C  C29  1  0.86112640  0.14835902  0.62352401  1  0.004491  -0.001104  3.710726  -0.001  -0.025495  -0.001956  3.973343  -0.002  -0.023572  -0.002311  3.997874  -0.002  0.006537  -0.027006  -0.001745  3.956508  -0.002
C  C30  1  0.14884013  0.87125471  0.12460389  1  0.007215  0.001082  3.748464  0.002  -0.022255  0.002921  4.011303  0.003  -0.020669  0.002362  4.032141  0.003  -0.000809  -0.023312  0.003413  3.996934  0.004
C  C31  1  0.13429953  0.85079211  0.37522041  1  0.000423  -8.7e-05  3.741058  0.0  -0.027484  -0.000293  4.003968  0.0  -0.026256  -0.000485  4.028038  -0.001  0.002632  -0.028378  -0.00021  3.987093  0.0
C  C32  1  0.89785857  0.99398554  0.85051917  1  -0.074802  0.000672  3.673399  0.001  -0.112441  0.001117  3.928342  0.001  -0.110876  0.000582  3.947212  0.0  -0.010204  -0.113357  0.001661  3.915563  0.001
C  C33  1  0.99748538  0.10498002  0.64786625  1  -0.064943  0.00142  3.668756  0.001  -0.102238  -0.000652  3.921987  0.0  -0.103533  0.000241  3.945708  0.0  -0.001675  -0.101038  -0.001537  3.905779  -0.001
C  C34  1  0.10212537  0.00597839  0.14943016  1  -0.072769  0.000665  3.670875  0.001  -0.110628  0.001134  3.925851  0.001  -0.10918  0.000587  3.945002  0.0  -0.00933  -0.111468  0.001684  3.912871  0.001
C  C35  1  0.99779174  0.89463558  0.35100554  1  -0.075089  0.000936  3.678535  0.001  -0.110637  -0.000141  3.929528  0.0  -0.111361  0.000149  3.952741  0.0  -0.007009  -0.109756  -0.000444  3.913428  0.0
C  C36  1  0.10477668  0.19140397  0.94325735  1  0.152401  0.003892  3.668613  0.004  0.093572  0.006549  3.934433  0.006  0.106299  0.005643  3.948973  0.005  0.137523  0.085356  0.007416  3.923897  0.007
C  C37  1  0.80271321  0.89253571  0.55753583  1  0.154611  -0.014341  3.632053  -0.012  0.092865  -0.009911  3.901934  -0.008  0.106454  -0.010058  3.917692  -0.008  0.145398  0.083731  -0.01002  3.890957  -0.008
C  C38  1  0.89520610  0.80861967  0.05664772  1  0.152138  0.003944  3.670083  0.004  0.093211  0.00665  3.935994  0.006  0.105974  0.005738  3.950506  0.005  0.137478  0.084986  0.007519  3.925433  0.007
C  C39  1  0.19410726  0.10584194  0.44122634  1  0.139664  -0.005113  3.670688  -0.005  0.081418  -0.00299  3.940919  -0.003  0.093857  -0.003139  3.956887  -0.003  0.136866  0.073241  -0.002991  3.9295  -0.003
C  C40  1  0.16477179  0.93552565  0.88751937  1  -0.182693  0.000417  3.655191  0.0  -0.287411  0.000591  3.903368  0.0  -0.284289  0.000393  3.913651  0.0  -0.140261  -0.289275  0.000818  3.896312  0.001
C  C41  1  0.06298494  0.84215356  0.61253018  1  -0.182437  0.000213  3.641931  0.0  -0.286844  0.000129  3.890852  0.0  -0.283443  0.000154  3.902455  0.0  -0.135905  -0.288851  0.000105  3.882769  0.0
C  C42  1  0.83517960  0.06438185  0.11249118  1  -0.18207  0.000384  3.653965  0.0  -0.286688  0.000599  3.90217  0.0  -0.283592  0.0004  3.912441  0.0  -0.13993  -0.288551  0.000827  3.895114  0.001
C  C43  1  0.93477502  0.15883834  0.38657209  1  -0.179611  0.000102  3.653846  0.0  -0.283838  0.000146  3.902101  0.0  -0.280393  0.000134  3.913474  0.0  -0.137163  -0.285896  0.000151  3.894051  0.0
C  C44  1  0.64648015  0.34317487  0.05528242  1  0.275026  0.020426  3.932407  0.021  0.260919  0.026681  4.228978  0.026  0.280241  0.023593  4.241744  0.024  0.15193  0.24754  0.029959  4.221084  0.029
C  C45  1  0.65344602  0.32322914  0.44121072  1  0.251334  0.011375  3.910429  0.01  0.238814  0.005606  4.213882  0.005  0.259222  0.002132  4.223181  0.002  0.1431  0.225336  0.006834  4.207679  0.005
C  C46  1  0.35348348  0.65673001  0.94444951  1  0.274474  0.020229  3.931452  0.02  0.260728  0.026501  4.227627  0.026  0.280064  0.023419  4.240391  0.023  0.151203  0.247341  0.029777  4.21972  0.029
C  C47  1  0.35327578  0.67812740  0.56078792  1  0.254668  0.008459  3.908058  0.008  0.242374  0.00554  4.211191  0.005  0.262559  0.002448  4.220849  0.002  0.144505  0.229076  0.006667  4.204696  0.005
C  C48  1  0.54746110  0.82825365  0.30338043  1  0.24363  -0.00337  3.933838  -0.003  0.231267  -0.007401  4.236263  -0.007  0.250652  -0.005684  4.250232  -0.005  0.150527  0.218227  -0.010096  4.226234  -0.009
C  C49  1  0.16292359  0.45112876  0.21676790  1  0.266923  0.013057  3.962623  0.014  0.251422  0.019566  4.264538  0.02  0.271484  0.017215  4.277282  0.018  0.149561  0.237525  0.0221  4.256276  0.022
C  C50  1  0.45838153  0.17156440  0.69876807  1  0.242737  -0.003887  3.93266  -0.004  0.230577  -0.007406  4.235376  -0.007  0.249998  -0.005487  4.249238  -0.005  0.150177  0.217536  -0.010285  4.225361  -0.009
C  C51  1  0.83643314  0.54887740  0.78317135  1  0.265557  0.012858  3.962304  0.014  0.250384  0.019283  4.263855  0.02  0.270472  0.016921  4.276555  0.018  0.14883  0.236466  0.021848  4.255619  0.022
S  S52  1  0.50495343  0.23473980  0.10334312  1  -0.224489  0.00998  2.219567  0.007  -0.1866  0.013497  2.547387  0.008  -0.198877  0.009706  2.539315  0.006  -0.095291  -0.179306  0.017885  2.554161  0.011
S  S53  1  0.74835626  0.48537052  0.40502992  1  -0.233958  -0.002042  2.246769  -0.004  -0.201965  -0.000464  2.583835  -0.002  -0.214114  -0.000892  2.573201  -0.002  -0.106386  -0.193703  8.3e-05  2.591657  -0.002
S  S54  1  0.49493204  0.76493892  0.89623430  1  -0.224798  0.009775  2.216049  0.007  -0.187049  0.013484  2.543049  0.008  -0.199444  0.009746  2.535133  0.006  -0.095711  -0.17965  0.017821  2.549691  0.011
S  S55  1  0.25032356  0.51709273  0.59489888  1  -0.234056  -0.002025  2.239048  -0.003  -0.201983  -0.000552  2.573814  -0.002  -0.213928  -0.001059  2.563329  -0.002  -0.107404  -0.193924  5.7e-05  2.581533  -0.002
S  S56  1  0.56858838  0.73718082  0.19841765  1  -0.21585  -0.010385  2.235973  -0.009  -0.181439  -0.011774  2.56798  -0.01  -0.200504  -0.008161  2.562251  -0.007  -0.087004  -0.166355  -0.016591  2.57116  -0.013
S  S57  1  0.26558625  0.42994518  0.31704132  1  -0.241346  0.00729  2.234513  0.005  -0.209503  0.010025  2.572243  0.007  -0.224309  0.007358  2.566949  0.005  -0.103062  -0.200204  0.013213  2.576814  0.009
S  S58  1  0.42623147  0.26154282  0.80077048  1  -0.215805  -0.010478  2.242738  -0.009  -0.181648  -0.01175  2.576837  -0.01  -0.200553  -0.008137  2.5709  -0.007  -0.087399  -0.166669  -0.016576  2.580137  -0.013
S  S59  1  0.73328129  0.57020442  0.68307997  1  -0.242902  0.006904  2.23338  0.005  -0.210438  0.009622  2.570879  0.006  -0.225248  0.007057  2.565597  0.005  -0.104004  -0.201073  0.012668  2.575424  0.008
N  N60  1  0.98133810  0.25095775  0.93337471  1  -0.3885  0.030144  3.266117  0.017  -0.318698  0.03402  3.551168  0.016  -0.340304  0.030497  3.567778  0.013  -0.348937  -0.302781  0.037148  3.538849  0.019
N  N61  1  0.74049354  0.01456160  0.56696023  1  -0.295934  0.01854  3.326274  0.027  -0.241348  0.008425  3.612147  0.016  -0.270015  0.009046  3.63593  0.017  -0.34242  -0.221414  0.007231  3.594055  0.015
N  N62  1  0.01867439  0.74908990  0.06646571  1  -0.388941  0.030302  3.267145  0.017  -0.319107  0.034073  3.552387  0.016  -0.340708  0.030527  3.568955  0.013  -0.34946  -0.303164  0.03722  3.540056  0.019
N  N63  1  0.25484779  0.98366795  0.43146829  1  -0.310222  0.014141  3.22461  0.019  -0.257484  0.006942  3.50238  0.011  -0.28265  0.006241  3.52424  0.011  -0.31258  -0.239347  0.007277  3.485774  0.012
N  N64  1  0.05917489  0.03587102  0.89437351  1  -0.023073  0.001014  3.594975  0.001  0.079689  0.002123  3.807421  0.002  0.065327  0.001643  3.834488  0.002  -0.248727  0.089162  0.002582  3.78902  0.003
N  N65  1  0.95844985  0.94332738  0.60532418  1  -0.021095  -0.001977  3.597291  -0.001  0.080154  -0.003422  3.811739  -0.003  0.06508  -0.002958  3.840117  -0.003  -0.243487  0.090133  -0.003785  3.792447  -0.003
N  N66  1  0.94081879  0.96410980  0.10557061  1  -0.023381  0.001082  3.594989  0.001  0.07926  0.002192  3.807622  0.002  0.064871  0.0017  3.834745  0.002  -0.248606  0.088751  0.002665  3.789181  0.003
N  N67  1  0.03779085  0.05633505  0.39353595  1  -0.025295  -0.000336  3.606785  0.0  0.077319  -0.000889  3.818621  -0.001  0.062391  -0.000792  3.847006  -0.001  -0.248286  0.087281  -0.000947  3.799167  -0.001
N  N68  1  0.74773293  0.41801092  0.01959668  1  -0.47075  0.016073  2.868452  -0.001  -0.429155  0.024389  3.151789  0.002  -0.446343  0.019722  3.156595  -0.002  -0.342546  -0.417788  0.028824  3.14927  0.005
N  N69  1  0.59199480  0.20573312  0.46832455  1  -0.406998  0.009287  3.166141  0.01  -0.381624  0.007864  3.473599  0.009  -0.393785  0.006872  3.474923  0.009  -0.37841  -0.37431  0.008643  3.471123  0.01
N  N70  1  0.25224522  0.58185819  0.98013801  1  -0.470387  0.016108  2.866806  -0.001  -0.428718  0.024435  3.149556  0.002  -0.445939  0.019794  3.154338  -0.002  -0.342298  -0.41734  0.02884  3.147095  0.005
N  N71  1  0.42280388  0.79536875  0.53617948  1  -0.409066  0.010135  3.160501  0.012  -0.383695  0.007863  3.467454  0.009  -0.396176  0.006806  3.469352  0.009  -0.378874  -0.376108  0.008585  3.464475  0.01
N  N72  1  0.53356944  0.89252799  0.37983637  1  -0.407746  0.014311  3.168719  0.02  -0.379084  0.008882  3.472817  0.016  -0.396301  0.009177  3.481999  0.016  -0.381183  -0.367153  0.006754  3.464584  0.015
N  N73  1  0.08537792  0.46373828  0.14521199  1  -0.47962  0.022044  2.88335  0.006  -0.433539  0.0278  3.164109  0.006  -0.451593  0.023646  3.167981  0.003  -0.346548  -0.421157  0.031732  3.162021  0.009
N  N74  1  0.48044897  0.10788884  0.62450013  1  -0.406955  0.014477  3.165592  0.021  -0.378651  0.00911  3.46976  0.017  -0.395837  0.009316  3.479019  0.015  -0.380734  -0.366707  0.007039  3.461373  0.016
N  N75  1  0.91443385  0.53605538  0.85449806  1  -0.477814  0.02182  2.881283  0.006  -0.431911  0.027755  3.161117  0.006  -0.449899  0.023659  3.164997  0.003  -0.345237  -0.419589  0.031628  3.159033  0.009
