# generated using pymatgen
data_Zn4H8C40Br4Cl8O13
_symmetry_space_group_name_H-M   'P 1'
_cell_length_a   23.88209719
_cell_length_b   23.88391431
_cell_length_c   23.88198261
_cell_angle_alpha   66.89469584
_cell_angle_beta   72.32100487
_cell_angle_gamma   107.68865525
_symmetry_Int_Tables_number   1
_chemical_formula_structural   Zn4H8C40Br4Cl8O13
_chemical_formula_sum   'Zn8 H16 C80 Br8 Cl16 O26'
_cell_volume   10454.91894373
_cell_formula_units_Z   2
loop_
 _symmetry_equiv_pos_site_id
 _symmetry_equiv_pos_as_xyz
  1  'x, y, z'
loop_
 _atom_site_type_symbol
 _atom_site_label
 _atom_site_symmetry_multiplicity
 _atom_site_fract_x
 _atom_site_fract_y
 _atom_site_fract_z
 _atom_site_occupancy
 _atom_site_pbe_bader_charge
 _atom_site_pbe_bader_spin_density
 _atom_site_pbe_cm5_charge
 _atom_site_pbe_ddec_charge
 _atom_site_pbe_ddec_spin_density
 _atom_site_pbe_ddec_sum_bond_order
 _atom_site_pbe_magmom
Zn  Zn0  1  0.05752666  0.95791944  0.48456795  1  1.321918  0  0.675601  0.971214  0  2.36902  0
Zn  Zn1  1  0.05752399  0.09961284  0.45791784  1  1.321049  0  0.675781  0.971454  0  2.368269  0
Zn  Zn2  1  0.94246812  0.98456744  0.45791237  1  1.321647  0  0.675603  0.971422  0  2.368956  0
Zn  Zn3  1  0.94248770  0.95791316  0.59961331  1  1.320865  0  0.675648  0.971301  0  2.368767  0
Zn  Zn4  1  0.94247732  0.54208505  0.01542957  1  1.321886  0  0.675649  0.97143  0  2.368966  0
Zn  Zn5  1  0.05753309  0.51543740  0.04208710  1  1.321707  0  0.675731  0.971539  0  2.368934  0
Zn  Zn6  1  0.94247624  0.40039090  0.04208787  1  1.321184  0  0.675658  0.971198  0  2.368779  0
Zn  Zn7  1  0.05751139  0.54208400  0.90038643  1  1.320934  0  0.67565  0.971249  0  2.368883  0
H  H8  1  0.92374702  0.65209503  0.11236856  1  0.141054  0  0.114226  0.137385  0  0.986791  0
H  H9  1  0.07625302  0.61235917  0.15213614  1  0.141478  0  0.114234  0.13741  0  0.986717  0
H  H10  1  0.92374260  0.88763698  0.34786845  1  0.141456  0  0.114147  0.137215  0  0.986856  0
H  H11  1  0.07619249  0.84783058  0.38770887  1  0.141992  0  0.114296  0.137487  0  0.986961  0
H  H12  1  0.07626568  0.46385744  0.77166127  1  0.143507  0  0.114289  0.137476  0  0.986833  0
H  H13  1  0.92375811  0.27161770  0.96390420  1  0.144609  0  0.114219  0.137366  0  0.986714  0
H  H14  1  0.07619455  0.22836825  0.53611198  1  0.14492  0  0.114296  0.137432  0  0.986844  0
H  H15  1  0.92374458  0.03611335  0.72836730  1  0.143944  0  0.1142  0.137308  0  0.986785  0
H  H16  1  0.73552600  0.46388225  0.11233516  1  0.144669  0  0.114295  0.137479  0  0.98674  0
H  H17  1  0.73551775  0.27162433  0.15213859  1  0.137923  0  0.114227  0.137375  0  0.986686  0
H  H18  1  0.26448557  0.22838245  0.34784949  1  0.138051  0  0.114245  0.137386  0  0.986793  0
H  H19  1  0.26447915  0.03614027  0.38758503  1  0.14401  0  0.114274  0.13743  0  0.986859  0
H  H20  1  0.26448641  0.61231796  0.96387603  1  0.144587  0  0.114328  0.137539  0  0.986897  0
H  H21  1  0.26447323  0.65213094  0.77161035  1  0.137933  0  0.114281  0.137426  0  0.986684  0
H  H22  1  0.73553016  0.84786221  0.72838924  1  0.137511  0  0.114167  0.137245  0  0.9868  0
H  H23  1  0.73550994  0.88760579  0.53613880  1  0.145402  0  0.114274  0.137522  0  0.986831  0
C  C24  1  0.18224364  0.09113478  0.40886370  1  1.55458  0  0.229879  0.606607  0  4.161346  0
C  C25  1  0.99999738  0.13673305  0.36326905  1  1.611301  0  0.228312  0.629463  0  4.124838  0
C  C26  1  0.99998218  0.90887190  0.40889394  1  1.531851  0  0.229979  0.606696  0  4.161559  0
C  C27  1  0.81775752  0.90886300  0.59114108  1  1.554325  0  0.230075  0.606854  0  4.161276  0
C  C28  1  0.00000772  0.86327438  0.63672907  1  1.612251  0  0.228143  0.629212  0  4.125103  0
C  C29  1  0.99998693  0.09112343  0.59112296  1  1.563634  0  0.229941  0.606714  0  4.161436  0
C  C30  1  0.00000566  0.59111337  0.09112566  1  1.531989  0  0.229954  0.606782  0  4.161354  0
C  C31  1  0.00000746  0.36327578  0.13672656  1  1.611346  0  0.228066  0.629018  0  4.125243  0
C  C32  1  0.81776007  0.40887341  0.09111156  1  1.554055  0  0.230011  0.606625  0  4.16148  0
C  C33  1  0.00000104  0.40886351  0.90889302  1  1.563772  0  0.23001  0.606747  0  4.161289  0
C  C34  1  0.99999573  0.63672817  0.86326932  1  1.612264  0  0.228194  0.629229  0  4.125326  0
C  C35  1  0.18223526  0.59111590  0.90886482  1  1.554086  0  0.230047  0.606619  0  4.161636  0
C  C36  1  0.00000475  0.80516073  0.69483911  1  0.064687  0  -0.015297  -0.09934  0  3.846375  0
C  C37  1  0.99999898  0.69484054  0.80515885  1  0.06413  0  -0.015344  -0.099367  0  3.846383  0
C  C38  1  0.95695875  0.77691921  0.76612178  1  0.012999  0  -0.013411  0.049877  0  3.872029  0
C  C39  1  0.04304278  0.72307987  0.73387729  1  0.013408  0  -0.013323  0.050075  0  3.871983  0
C  C40  1  0.95695715  0.72307824  0.81996133  1  -0.078348  0  -0.013392  0.049914  0  3.872116  0
C  C41  1  0.04304551  0.77692144  0.68003675  1  -0.078027  0  -0.013482  0.049645  0  3.872286  0
C  C42  1  0.99999857  0.19484023  0.30515749  1  0.064643  0  -0.015364  -0.099491  0  3.846308  0
C  C43  1  0.00000653  0.30516262  0.19484039  1  0.064678  0  -0.01518  -0.09919  0  3.845748  0
C  C44  1  0.95695872  0.18003944  0.27691141  1  -0.077882  0  -0.01344  0.049603  0  3.872276  0
C  C45  1  0.04304690  0.31996187  0.22308734  1  -0.077869  0  -0.013536  0.049435  0  3.872156  0
C  C46  1  0.95696145  0.23388101  0.22307296  1  0.01271  0  -0.013383  0.05009  0  3.871773  0
C  C47  1  0.04304442  0.26612001  0.27692499  1  0.01286  0  -0.013213  0.050454  0  3.871724  0
C  C48  1  0.00000028  0.62857475  0.12859697  1  -0.013464  0  -0.011098  -0.000469  0  3.979365  0
C  C49  1  0.95694520  0.65720826  0.13484012  1  0.084975  0  -0.086657  -0.16625  0  3.958374  0
C  C50  1  0.95703437  0.69200755  0.16971077  1  0.000541  0  0.024896  0.125733  0  4.004278  0
C  C51  1  0.99999439  0.69943413  0.19946573  1  0.203984  0  -0.002423  0.026048  0  4.059123  0
C  C52  1  0.04296040  0.66969371  0.19204087  1  0.000302  0  0.025085  0.125758  0  4.004475  0
C  C53  1  0.04305381  0.63482448  0.15724211  1  0.08424  0  -0.086814  -0.166386  0  3.958521  0
C  C54  1  0.99999048  0.73466917  0.23471005  1  -0.241018  0  -0.039125  -0.068262  0  4.134011  0
C  C55  1  0.99998559  0.76528562  0.26533537  1  -0.038165  0  -0.039044  -0.067883  0  4.133893  0
C  C56  1  0.99997186  0.80051967  0.30058138  1  0.203233  0  -0.002508  0.025652  0  4.05918  0
C  C57  1  0.95702077  0.83028127  0.30798230  1  -0.001713  0  0.025034  0.125819  0  4.004298  0
C  C58  1  0.95692775  0.86515193  0.34278079  1  0.08454  0  -0.086645  -0.166069  0  3.958581  0
C  C59  1  0.99996526  0.87138515  0.37144441  1  -0.012864  0  -0.01111  -0.000466  0  3.979472  0
C  C60  1  0.04300359  0.84272558  0.36522707  1  0.082642  0  -0.086917  -0.166465  0  3.958886  0
C  C61  1  0.04291769  0.80793007  0.33035351  1  0.003567  0  0.025055  0.125894  0  4.004626  0
C  C62  1  0.00001576  0.37139329  0.87143032  1  -0.013568  0  -0.01115  -0.000509  0  3.979081  0
C  C63  1  0.04307042  0.40819363  0.79974564  1  0.080009  0  -0.086707  -0.166168  0  3.958466  0
C  C64  1  0.04297123  0.37323125  0.76504026  1  0.033189  0  0.024962  0.12565  0  4.004594  0
C  C65  1  0.00000587  0.30052694  0.80057263  1  0.126994  0  -0.002277  0.026089  0  4.059325  0
C  C66  1  0.95704371  0.26499415  0.87327983  1  0.029487  0  0.025007  0.125708  0  4.004773  0
C  C67  1  0.95696022  0.29970099  0.90824005  1  0.083298  0  -0.086864  -0.166356  0  3.958709  0
C  C68  1  0.99999649  0.26529053  0.76532972  1  -0.242366  0  -0.039125  -0.068181  0  4.134046  0
C  C69  1  0.99998996  0.23468343  0.73469454  1  -0.035241  0  -0.039069  -0.068083  0  4.133955  0
C  C70  1  0.99997392  0.19944768  0.69945194  1  0.126636  0  -0.002402  0.026144  0  4.058898  0
C  C71  1  0.04291695  0.23498733  0.62674071  1  0.030035  0  0.02488  0.125438  0  4.005232  0
C  C72  1  0.04300216  0.20028324  0.59177805  1  0.083166  0  -0.08693  -0.166346  0  3.958913  0
C  C73  1  0.99996757  0.12858953  0.62858618  1  -0.013768  0  -0.011103  -0.000403  0  3.979272  0
C  C74  1  0.95692911  0.09178098  0.70027965  1  0.083628  0  -0.086644  -0.166146  0  3.958436  0
C  C75  1  0.95702303  0.12673809  0.73498913  1  0.029705  0  0.025046  0.125766  0  4.004448  0
C  C76  1  0.74282814  0.37141030  0.12857954  1  -0.022679  0  -0.011022  -0.000282  0  3.978954  0
C  C77  1  0.70794354  0.40821379  0.13481348  1  0.079742  0  -0.086908  -0.166476  0  3.958588  0
C  C78  1  0.63827636  0.37325413  0.16968612  1  0.026071  0  0.025063  0.125916  0  4.004771  0
C  C79  1  0.60110070  0.30054660  0.19944315  1  0.188469  0  -0.002409  0.025884  0  4.059179  0
C  C80  1  0.63827198  0.26500829  0.19203231  1  -0.006256  0  0.024939  0.125748  0  4.004577  0
C  C81  1  0.70794047  0.29971415  0.15723539  1  0.095744  0  -0.086839  -0.166445  0  3.958164  0
C  C82  1  0.53062020  0.26531749  0.23467459  1  -0.323002  0  -0.039143  -0.068214  0  4.133966  0
C  C83  1  0.46937947  0.23470949  0.26527732  1  2.5e-05  0  -0.03905  -0.067942  0  4.134025  0
C  C84  1  0.39890198  0.19946936  0.30050885  1  0.187761  0  -0.002252  0.025968  0  4.059308  0
C  C85  1  0.36172971  0.23500410  0.30793563  1  -0.00561  0  0.024952  0.12573  0  4.004908  0
C  C86  1  0.29206327  0.20029872  0.34273006  1  0.095302  0  -0.086938  -0.166386  0  3.958715  0
C  C87  1  0.25717819  0.12860617  0.37136822  1  -0.024021  0  -0.011135  -0.000598  0  3.97907  0
C  C88  1  0.29206057  0.09180614  0.36511264  1  0.082878  0  -0.08678  -0.166086  0  3.958573  0
C  C89  1  0.36172756  0.12676511  0.33025123  1  0.025767  0  0.025023  0.125622  0  4.00447  0
C  C90  1  0.25717124  0.62857058  0.87140020  1  -0.021992  0  -0.011225  -0.000342  0  3.97935  0
C  C91  1  0.29206547  0.63479692  0.90820758  1  0.079035  0  -0.086896  -0.166529  0  3.958996  0
C  C92  1  0.36173271  0.66966656  0.87324980  1  0.025946  0  0.024943  0.125695  0  4.00526  0
C  C93  1  0.39890134  0.69943123  0.80053908  1  0.189887  0  -0.002504  0.025794  0  4.0592  0
C  C94  1  0.36172303  0.69202668  0.76499874  1  -0.008132  0  0.025103  0.125996  0  4.003982  0
C  C95  1  0.29205497  0.65722751  0.79970164  1  0.095216  0  -0.086875  -0.166568  0  3.958418  0
C  C96  1  0.46938164  0.73467002  0.76531183  1  -0.322747  0  -0.039082  -0.068013  0  4.133626  0
C  C97  1  0.53062147  0.76528285  0.73471208  1  3.6e-05  0  -0.039072  -0.068067  0  4.133864  0
C  C98  1  0.60110021  0.80052058  0.69947484  1  0.188034  0  -0.002271  0.025978  0  4.059415  0
C  C99  1  0.63827914  0.80795277  0.73500787  1  -0.006439  0  0.025017  0.125864  0  4.004609  0
C  C100  1  0.70794634  0.84274536  0.70030280  1  0.095256  0  -0.086829  -0.166283  0  3.958435  0
C  C101  1  0.74282440  0.87138519  0.62860725  1  -0.02333  0  -0.011208  -0.000572  0  3.979366  0
C  C102  1  0.70793442  0.86513505  0.59180628  1  -0.045315  0  -0.086785  -0.16637  0  3.958851  0
C  C103  1  0.63826782  0.83026658  0.62676802  1  0.152278  0  0.024936  0.125707  0  4.004705  0
Br  Br104  1  0.89627730  0.80878645  0.79492984  1  0.024726  0  0.040318  -0.017436  0  1.602688  0
Br  Br105  1  0.10371990  0.69121194  0.70507082  1  0.025264  0  0.040363  -0.017401  0  1.602785  0
Br  Br106  1  0.89627952  0.69120305  0.91250991  1  0.03239  0  0.040409  -0.017306  0  1.602795  0
Br  Br107  1  0.10372231  0.80878906  0.58749014  1  0.032019  0  0.040411  -0.017241  0  1.602804  0
Br  Br108  1  0.89628137  0.08749257  0.30877081  1  0.027301  0  0.040339  -0.017291  0  1.602791  0
Br  Br109  1  0.10372240  0.41250897  0.19122841  1  0.02723  0  0.040363  -0.017251  0  1.602812  0
Br  Br110  1  0.89628042  0.20507829  0.19119153  1  0.02985  0  0.040358  -0.017416  0  1.60264  0
Br  Br111  1  0.10372808  0.29492537  0.30880291  1  0.029969  0  0.040276  -0.017563  0  1.602627  0
Cl  Cl112  1  0.09607330  0.67710762  0.22709799  1  -0.19049  0  -0.005054  -0.070952  0  1.471384  0
Cl  Cl113  1  0.90391692  0.72705358  0.17711355  1  -0.186979  0  -0.005058  -0.071028  0  1.471343  0
Cl  Cl114  1  0.09602070  0.77286287  0.32296890  1  -0.18742  0  -0.004964  -0.070965  0  1.471371  0
Cl  Cl115  1  0.90392568  0.82289033  0.27290152  1  -0.189891  0  -0.005054  -0.070988  0  1.47133  0
Cl  Cl116  1  0.90392166  0.17683411  0.91897888  1  -0.180973  0  -0.005  -0.070923  0  1.471299  0
Cl  Cl117  1  0.09609299  0.41894260  0.67687291  1  -0.179898  0  -0.005094  -0.071027  0  1.471276  0
Cl  Cl118  1  0.90393426  0.08103323  0.82315649  1  -0.184467  0  -0.00506  -0.071006  0  1.47141  0
Cl  Cl119  1  0.09601929  0.32315208  0.58103740  1  -0.184408  0  -0.004925  -0.070864  0  1.471569  0
Cl  Cl120  1  0.59581440  0.17684240  0.22710579  1  -0.194068  0  -0.004984  -0.070908  0  1.471437  0
Cl  Cl121  1  0.59581570  0.41895747  0.17707993  1  -0.184143  0  -0.005035  -0.071001  0  1.471578  0
Cl  Cl122  1  0.40418258  0.08105403  0.32284081  1  -0.184122  0  -0.005034  -0.070929  0  1.471224  0
Cl  Cl123  1  0.40419740  0.32315937  0.27289551  1  -0.194231  0  -0.00503  -0.070969  0  1.471624  0
Cl  Cl124  1  0.40417764  0.72710206  0.67682964  1  -0.192745  0  -0.00508  -0.071052  0  1.471063  0
Cl  Cl125  1  0.40420189  0.67705775  0.91895797  1  -0.184558  0  -0.004875  -0.070846  0  1.471621  0
Cl  Cl126  1  0.59580486  0.82286444  0.58105432  1  -0.185057  0  -0.005038  -0.070994  0  1.471333  0
Cl  Cl127  1  0.59582691  0.77290679  0.82317011  1  -0.192677  0  -0.005041  -0.071004  0  1.471289  0
O  O128  1  0.99999695  0.99999870  0.50000091  1  -1.233159  0  -0.571252  -1.030801  0  2.532683  0
O  O129  1  0.15335530  0.02606062  0.43273461  1  -1.165566  0  -0.312557  -0.542561  0  2.336488  0
O  O130  1  0.03975731  0.15395386  0.38579227  1  -1.177971  0  -0.313445  -0.542009  0  2.487573  0
O  O131  1  0.95877571  0.93273742  0.41391396  1  -1.163718  0  -0.312529  -0.542489  0  2.336842  0
O  O132  1  0.15335618  0.12730272  0.41391272  1  -1.163386  0  -0.312421  -0.542291  0  2.3373  0
O  O133  1  0.04120306  0.91391530  0.43274146  1  -1.164265  0  -0.312471  -0.542352  0  2.33694  0
O  O134  1  0.96021920  0.07443287  0.38580828  1  -1.175606  0  -0.313498  -0.542256  0  2.486329  0
O  O135  1  0.84664262  0.93272499  0.52606635  1  -1.165508  0  -0.312594  -0.542701  0  2.336332  0
O  O136  1  0.96025410  0.88580186  0.65395419  1  -1.177681  0  -0.313325  -0.541857  0  2.487479  0
O  O137  1  0.84665053  0.91390179  0.62731408  1  -1.163293  0  -0.312486  -0.54235  0  2.337387  0
O  O138  1  0.03977254  0.88580882  0.57443584  1  -1.176608  0  -0.313479  -0.542096  0  2.486658  0
O  O139  1  0.04120047  0.12729833  0.52605959  1  -1.179113  0  -0.312507  -0.542508  0  2.336779  0
O  O140  1  0.95878898  0.02605255  0.62730131  1  -1.179093  0  -0.312501  -0.542486  0  2.336887  0
O  O141  1  0.00000386  0.50000472  0.00000259  1  -1.233222  0  -0.571254  -1.030781  0  2.532698  0
O  O142  1  0.95879376  0.58607946  0.06726624  1  -1.164246  0  -0.312469  -0.542473  0  2.336819  0
O  O143  1  0.03978436  0.42557365  0.11419072  1  -1.175785  0  -0.313358  -0.542093  0  2.486534  0
O  O144  1  0.84664947  0.37270328  0.08607873  1  -1.163597  0  -0.312485  -0.542315  0  2.337327  0
O  O145  1  0.04122294  0.56726281  0.08609187  1  -1.163937  0  -0.312577  -0.542568  0  2.33685  0
O  O146  1  0.84665143  0.47394697  0.06725045  1  -1.165226  0  -0.312591  -0.542565  0  2.33661  0
O  O147  1  0.96024825  0.34605414  0.11420512  1  -1.177872  0  -0.313422  -0.541784  0  2.487815  0
O  O148  1  0.95878704  0.37269387  0.97395488  1  -1.179291  0  -0.312536  -0.542439  0  2.337161  0
O  O149  1  0.03973938  0.61419229  0.84604466  1  -1.177761  0  -0.31336  -0.541878  0  2.48753  0
O  O150  1  0.04120180  0.47393305  0.87271142  1  -1.179095  0  -0.312513  -0.54252  0  2.336745  0
O  O151  1  0.96023793  0.61420076  0.92556308  1  -1.176586  0  -0.313474  -0.542159  0  2.486863  0
O  O152  1  0.15335157  0.56726364  0.97393907  1  -1.165648  0  -0.312555  -0.542534  0  2.336441  0
O  O153  1  0.15334089  0.58608719  0.87269203  1  -1.162993  0  -0.312527  -0.542312  0  2.337639  0
