# generated using pymatgen
data_AlH7C12SNO5
_symmetry_space_group_name_H-M   'P 1'
_cell_length_a   6.65885608
_cell_length_b   12.79115817
_cell_length_c   17.63002088
_cell_angle_alpha   83.25610455
_cell_angle_beta   79.02070491
_cell_angle_gamma   74.46636651
_symmetry_Int_Tables_number   1
_chemical_formula_structural   AlH7C12SNO5
_chemical_formula_sum   'Al2 H14 C24 S2 N2 O10'
_cell_volume   1416.78974931
_cell_formula_units_Z   2
loop_
 _symmetry_equiv_pos_site_id
 _symmetry_equiv_pos_as_xyz
  1  'x, y, z'
loop_
 _atom_site_type_symbol
 _atom_site_label
 _atom_site_symmetry_multiplicity
 _atom_site_fract_x
 _atom_site_fract_y
 _atom_site_fract_z
 _atom_site_occupancy
 _atom_site_pbe_bader_charge
 _atom_site_pbe_bader_spin_density
 _atom_site_pbe_cm5_charge
 _atom_site_pbe_ddec_charge
 _atom_site_pbe_ddec_spin_density
 _atom_site_pbe_ddec_sum_bond_order
 _atom_site_pbe_magmom
Al  Al0  1  0.49478532  0.52416756  0.49916672  1  2.505516  0  0.398002  1.642337  0  2.581621  0
Al  Al1  1  0.99440649  0.52411910  0.50024100  1  2.504038  0  0.397154  1.64529  0  2.572776  0
H  H2  1  0.28293331  0.39896951  0.55358600  1  0.624776  0  0.352247  0.429945  0  0.855431  0
H  H3  1  0.76197453  0.58705475  0.40652083  1  0.592857  0  0.352086  0.428942  0  0.85712  0
H  H4  1  0.71251627  0.41925031  0.27636978  1  0.124435  0  0.104274  0.114816  0  1.005529  0
H  H5  1  0.79098846  0.38707237  0.13534496  1  0.090998  0  0.099845  0.104365  0  1.015076  0
H  H6  1  0.04998764  0.53085220  0.26410139  1  0.048571  0  0.106522  0.119792  0  1.006834  0
H  H7  1  0.91097322  0.54517726  0.73715040  1  0.095559  0  0.111996  0.129119  0  0.994402  0
H  H8  1  0.33748397  0.45820283  0.72577384  1  0.085934  0  0.106889  0.117913  0  1.003574  0
H  H9  1  0.28479492  0.41390224  0.86935928  1  0.077301  0  0.098358  0.101128  0  1.026821  0
H  H10  1  0.38954162  0.87269308  0.47665262  1  0.149875  0  0.114951  0.138927  0  1.000697  0
H  H11  1  0.60100467  0.17139706  0.52408059  1  0.081319  0  0.110898  0.131749  0  1.009265  0
H  H12  1  0.13215990  0.50911889  0.05487650  1  0.430979  0  0.298703  0.293388  0  0.972067  0
H  H13  1  0.94717221  0.54868820  0.13571166  1  0.449395  0  0.310812  0.30545  0  0.941116  0
H  H14  1  0.83111116  0.51628364  0.94924077  1  0.427487  0  0.29771  0.291226  0  0.974183  0
H  H15  1  0.98043566  0.56087317  0.86744897  1  0.45818  0  0.310605  0.305059  0  0.939297  0
C  C16  1  0.85087021  0.32612699  0.50161652  1  1.623318  0  0.255121  0.644322  0  4.153091  0
C  C17  1  0.66533555  0.52370825  0.63828781  1  1.556907  0  0.268297  0.638843  0  4.101023  0
C  C18  1  0.13893179  0.71857652  0.49948887  1  1.607345  0  0.260468  0.644331  0  4.150573  0
C  C19  1  0.32900661  0.50426829  0.36062081  1  1.571997  0  0.265223  0.644173  0  4.082316  0
C  C20  1  0.37645658  0.47944000  0.27750720  1  -0.05108  0  -0.018315  -0.025385  0  4.016949  0
C  C21  1  0.58639502  0.43735090  0.24192756  1  -0.020988  0  -0.104502  -0.138858  0  4.033651  0
C  C22  1  0.62897862  0.41932722  0.16373054  1  -0.101319  0  -0.091529  -0.119963  0  4.010206  0
C  C23  1  0.46565866  0.44444894  0.11891295  1  0.061484  0  -0.016523  0.025266  0  4.094163  0
C  C24  1  0.25176521  0.48317882  0.15575092  1  0.45068  0  0.105448  0.270418  0  4.069843  0
C  C25  1  0.21160459  0.49966564  0.23502146  1  0.042542  0  -0.098071  -0.21738  0  3.947132  0
C  C26  1  0.50801533  0.43901434  0.03766138  1  0.195372  0  -0.051599  -0.114279  0  4.149347  0
C  C27  1  0.52591866  0.44490791  0.96683692  1  -0.58811  0  -0.049296  -0.106599  0  4.148965  0
C  C28  1  0.56101880  0.46101719  0.88526358  1  0.048302  0  -0.017372  0.022496  0  4.096621  0
C  C29  1  0.74096877  0.49908750  0.84802803  1  0.476299  0  0.104535  0.268414  0  4.065619  0
C  C30  1  0.77245986  0.51836088  0.76721439  1  0.025346  0  -0.095233  -0.218405  0  3.937893  0
C  C31  1  0.62673253  0.50489137  0.72423009  1  -0.030692  0  -0.014472  -0.016955  0  4.01749  0
C  C32  1  0.44778104  0.46896897  0.76078939  1  0.00551  0  -0.102476  -0.140361  0  4.03187  0
C  C33  1  0.41895458  0.44514424  0.84029904  1  -0.080847  0  -0.093129  -0.120967  0  4.01617  0
C  C34  1  0.21881836  0.90449595  0.48803838  1  -0.018699  0  -0.089084  -0.137986  0  3.97336  0
C  C35  1  0.77173975  0.14011476  0.51257156  1  0.085138  0  -0.091092  -0.137453  0  3.985748  0
C  C36  1  0.08151761  0.83761152  0.50042908  1  -0.166572  0  -0.019217  -0.118967  0  3.978811  0
C  C37  1  0.90847299  0.20724217  0.50024633  1  -0.21981  0  -0.022808  -0.120118  0  3.983726  0
C  C38  1  0.88417662  0.02999898  0.50820254  1  -0.153962  0  -0.023676  -0.012543  0  4.070361  0
C  C39  1  0.10627424  0.01464793  0.49240408  1  -0.153888  0  -0.022544  -0.007287  0  4.065597  0
S  S40  1  0.81619339  0.90761228  0.51762554  1  0.253259  0  0.089724  0.124313  0  2.758201  0
S  S41  1  0.17386916  0.13719471  0.48308016  1  0.250233  0  0.082312  0.114184  0  2.763856  0
N  N42  1  0.09055665  0.50255635  0.11335087  1  -1.235793  0  -0.590442  -0.614152  0  3.360002  0
N  N43  1  0.88231629  0.51312108  0.89134277  1  -1.259101  0  -0.59008  -0.612567  0  3.355596  0
O  O44  1  0.65386677  0.37329445  0.51192842  1  -1.262664  0  -0.240656  -0.593895  0  2.327376  0
O  O45  1  0.85567340  0.51644948  0.60518521  1  -1.263477  0  -0.233089  -0.58624  0  2.346413  0
O  O46  1  0.98703605  0.67247740  0.50976392  1  -1.249653  0  -0.23503  -0.580469  0  2.330104  0
O  O47  1  0.48630312  0.50065924  0.39333664  1  -1.257674  0  -0.240369  -0.602902  0  2.339838  0
O  O48  1  0.33534339  0.67129669  0.48757499  1  -1.263558  0  -0.232704  -0.576323  0  2.325311  0
O  O49  1  0.13519751  0.52882341  0.39294612  1  -1.268725  0  -0.243217  -0.609356  0  2.337358  0
O  O50  1  0.00334456  0.37188650  0.49314279  1  -1.262581  0  -0.244784  -0.602789  0  2.337218  0
O  O51  1  0.50639490  0.54246027  0.60385730  1  -1.262562  0  -0.235221  -0.585124  0  2.339258  0
O  O52  1  0.25277243  0.47463891  0.53417973  1  -1.429009  0  -0.448425  -0.991019  0  2.205742  0
O  O53  1  0.74136368  0.56886910  0.46190547  1  -1.400189  0  -0.447224  -0.987864  0  2.192571  0
