# generated using pymatgen
data_CoH9C5SNO6
_symmetry_space_group_name_H-M   'P 1'
_cell_length_a   4.94073763
_cell_length_b   9.93372958
_cell_length_c   9.73711779
_cell_angle_alpha   89.99983870
_cell_angle_beta   109.01907815
_cell_angle_gamma   90.00011745
_symmetry_Int_Tables_number   1
_chemical_formula_structural   CoH9C5SNO6
_chemical_formula_sum   'Co2 H18 C10 S2 N2 O12'
_cell_volume   451.80891284
_cell_formula_units_Z   2
loop_
 _symmetry_equiv_pos_site_id
 _symmetry_equiv_pos_as_xyz
  1  'x, y, z'
loop_
 _atom_site_type_symbol
 _atom_site_label
 _atom_site_symmetry_multiplicity
 _atom_site_fract_x
 _atom_site_fract_y
 _atom_site_fract_z
 _atom_site_occupancy
 _atom_site_hle17_ddec_charge
 _atom_site_hle17_ddec_spin_density
 _atom_site_hle17_ddec_sum_bond_order
 _atom_site_hle17_magmom
 _atom_site_hse06_10hf_ddec_charge
 _atom_site_hse06_10hf_ddec_spin_density
 _atom_site_hse06_10hf_ddec_sum_bond_order
 _atom_site_hse06_10hf_magmom
 _atom_site_hse06_ddec_charge
 _atom_site_hse06_ddec_spin_density
 _atom_site_hse06_ddec_sum_bond_order
 _atom_site_hse06_magmom
 _atom_site_pbe_cm5_charge
 _atom_site_pbe_ddec_charge
 _atom_site_pbe_ddec_spin_density
 _atom_site_pbe_ddec_sum_bond_order
 _atom_site_pbe_magmom
Co  Co0  1  0.58244882  0.60628061  0.43448908  1  0.815511  1.163908  2.185637  1.018  0.788258  1.043161  2.638855  0.931  0.879747  1.053376  2.54335  0.95  0.586181  0.727973  1.032241  2.704265  0.91
Co  Co1  1  0.41756230  0.10627366  0.56551720  1  0.815983  -1.163906  2.185333  -1.018  0.788273  -1.043146  2.638694  -0.931  0.879687  -1.053361  2.543274  -0.95  0.586134  0.727932  -1.032213  2.704109  -0.91
H  H2  1  0.91199965  0.65374997  0.29468232  1  0.27663  2.1e-05  0.919872  0.0  0.262967  6.5e-05  0.98368  0.0  0.270017  -8.4e-05  0.980018  0.0  0.303287  0.257903  0.000113  0.986713  0.0
H  H3  1  0.08800041  0.15375957  0.70532621  1  0.276625  -2.1e-05  0.919888  0.0  0.263022  -6.5e-05  0.983617  0.0  0.270077  8.4e-05  0.979946  0.0  0.303281  0.257956  -0.000112  0.986655  0.0
H  H4  1  0.61986829  0.61815276  0.07926461  1  0.105216  -1.2e-05  0.944432  0.0  0.109482  -3.3e-05  1.009164  0.0  0.112743  -5.9e-05  1.007044  0.0  0.116442  0.10698  -3.5e-05  1.011124  0.0
H  H5  1  0.38015489  0.11815190  0.92073522  1  0.105144  1.2e-05  0.944395  0.0  0.10944  3.4e-05  1.009129  0.0  0.112719  5.9e-05  1.006981  0.0  0.116429  0.10694  3.5e-05  1.011091  0.0
H  H6  1  0.99612020  0.85371590  0.39616440  1  0.111911  -0.00013  0.92964  0.0  0.120504  -0.000309  0.98927  0.0  0.12277  -0.000284  0.988268  0.0  0.129417  0.118384  -0.000319  0.99053  0.0
H  H7  1  0.00387392  0.35370789  0.60383194  1  0.112088  0.00013  0.929344  0.0  0.120637  0.000309  0.989086  0.0  0.122904  0.000283  0.988085  0.0  0.129528  0.118516  0.000319  0.990344  0.0
H  H8  1  0.90181069  0.90271325  0.14062962  1  0.104669  9.9e-05  0.964419  0.0  0.107788  7.1e-05  1.043467  0.0  0.109999  4e-05  1.042767  0.0  0.091915  0.106272  0.0001  1.044043  0.0
H  H9  1  0.09818520  0.40270898  0.85937662  1  0.104722  -9.9e-05  0.964349  0.0  0.107821  -7.2e-05  1.043434  0.0  0.110034  -4e-05  1.042732  0.0  0.091911  0.106301  -0.0001  1.044014  0.0
H  H10  1  0.68460219  0.02408827  0.18991933  1  0.127741  -5.8e-05  0.92194  0.0  0.146026  4.7e-05  0.971882  0.0  0.147562  9.3e-05  0.971495  0.0  0.114097  0.144779  4.1e-05  0.972465  0.0
H  H11  1  0.31539929  0.52408564  0.81008130  1  0.127758  5.7e-05  0.921965  0.0  0.14605  -4.7e-05  0.971877  0.0  0.147589  -9.3e-05  0.971484  0.0  0.114087  0.144804  -4.1e-05  0.972461  0.0
H  H12  1  0.11665676  0.59826315  0.57507827  1  0.413341  0.00016  0.887707  0.0  0.387129  5.8e-05  0.950627  0.0  0.398555  -4e-06  0.934445  0.0  0.300858  0.379059  0.0001  0.962073  0.0
H  H13  1  0.88330311  0.09826088  0.42492240  1  0.413239  -0.00016  0.887729  0.0  0.387118  -5.7e-05  0.950592  0.0  0.398548  5e-06  0.934403  0.0  0.300838  0.379046  -0.0001  0.962041  0.0
H  H14  1  0.98811373  0.72545622  0.63511269  1  0.432868  -0.000294  0.866713  -0.001  0.407784  -0.00011  0.919469  0.0  0.419543  -1.9e-05  0.902976  0.0  0.294822  0.399425  -0.000114  0.931197  0.0
H  H15  1  0.01190725  0.22544156  0.36488307  1  0.432882  0.000294  0.866721  0.001  0.407783  0.00011  0.919505  0.0  0.419542  1.9e-05  0.903011  0.0  0.294804  0.39942  0.000114  0.93124  0.0
H  H16  1  0.75283991  0.34993306  0.19139181  1  0.369161  -5.4e-05  0.933742  0.0  0.339126  -5.8e-05  1.005806  0.0  0.348535  -6.4e-05  0.992152  0.0  0.275152  0.332467  -6.7e-05  1.015535  0.0
H  H17  1  0.24716760  0.84995277  0.80861208  1  0.369247  5.4e-05  0.933362  0.0  0.339193  5.8e-05  1.005634  0.0  0.348609  6.4e-05  0.991978  0.0  0.275165  0.332532  6.7e-05  1.015362  0.0
H  H18  1  0.02472749  0.43168037  0.28011907  1  0.413892  2.7e-05  0.892757  0.0  0.382475  6e-06  0.957826  0.0  0.3936  -9e-06  0.941657  0.0  0.290412  0.374705  3.2e-05  0.969145  0.0
H  H19  1  0.97528371  0.93169593  0.71987534  1  0.413752  -2.7e-05  0.892981  0.0  0.382396  -5e-06  0.957947  0.0  0.39352  8e-06  0.941778  0.0  0.290414  0.374626  -3.2e-05  0.969267  0.0
C  C20  1  0.51155473  0.67499743  0.14317889  1  -0.039522  -0.000332  3.563843  0.0  -0.056037  -0.000227  3.822473  0.0  -0.056313  -0.000197  3.833196  0.0  0.006934  -0.056025  -0.000256  3.815988  0.0
C  C21  1  0.48846946  0.17499766  0.85682331  1  -0.039562  0.000333  3.56395  0.0  -0.056068  0.000227  3.822636  0.0  -0.056345  0.000196  3.833348  0.0  0.006862  -0.056059  0.000256  3.816152  0.0
C  C22  1  0.24326974  0.60298041  0.14687142  1  0.62803  -0.002938  3.856213  -0.004  0.578949  -0.000976  4.167776  -0.001  0.614259  -0.000507  4.161431  -0.001  0.207521  0.55333  -0.001833  4.172584  -0.002
C  C23  1  0.75675287  0.10297814  0.85312973  1  0.628039  0.002938  3.856642  0.004  0.578954  0.000976  4.16823  0.001  0.614264  0.00051  4.161886  0.001  0.207553  0.553343  0.001832  4.173038  0.002
C  C24  1  0.77146136  0.84302455  0.32589832  1  0.005133  -3.3e-05  3.581951  0.0  -0.012855  6.4e-05  3.827277  0.0  -0.014146  0.00025  3.841013  0.001  0.000242  -0.011787  0.000117  3.81844  0.0
C  C25  1  0.22854903  0.34301654  0.67410089  1  0.005201  3.7e-05  3.582016  0.0  -0.012861  -6e-05  3.827699  0.0  -0.014161  -0.000245  3.841431  -0.001  0.000201  -0.011788  -0.000114  3.818873  0.0
C  C26  1  0.58351987  0.89315539  0.41303383  1  0.634797  -0.001039  3.795478  -0.002  0.584486  0.000284  4.106557  0.0  0.621425  -0.000453  4.102842  -0.001  0.221787  0.557438  0.000879  4.109109  0.0
C  C27  1  0.41644405  0.39312801  0.58697993  1  0.634371  0.001041  3.795062  0.002  0.583953  -0.000283  4.106394  0.0  0.620907  0.000455  4.102679  0.001  0.221642  0.556886  -0.000881  4.108956  0.0
C  C28  1  0.72193381  0.91633252  0.18209115  1  -0.173372  -0.000859  3.622296  -0.001  -0.217218  -0.000253  3.887014  -0.001  -0.216938  -0.000112  3.896008  0.0  -0.147549  -0.217205  -0.000255  3.880635  -0.001
C  C29  1  0.27804556  0.41632521  0.81790554  1  -0.173454  0.00086  3.622002  0.001  -0.217234  0.000253  3.8867  0.001  -0.21696  0.00011  3.895707  0.0  -0.147513  -0.217224  0.000255  3.880326  0.001
S  S30  1  0.39731398  0.84029103  0.06285627  1  0.001453  -0.000455  2.294037  -0.001  0.013746  -0.000115  2.621431  0.0  0.012124  -1.9e-05  2.615296  0.0  0.023245  0.014664  -0.000281  2.626436  0.0
S  S31  1  0.60268119  0.34028081  0.93714442  1  0.001539  0.000453  2.294004  0.001  0.013851  0.000116  2.62137  0.0  0.012222  2e-05  2.615233  0.0  0.02331  0.01478  0.000281  2.626383  0.0
N  N32  1  0.72010031  0.69636897  0.29255464  1  -0.389282  -0.011474  3.265583  -0.017  -0.358332  -0.006593  3.540704  -0.01  -0.389782  -0.006645  3.552821  -0.011  -0.481206  -0.337452  -0.005925  3.532875  -0.009
N  N33  1  0.27991623  0.19636334  0.70745546  1  -0.389414  0.011472  3.265766  0.017  -0.358445  0.006593  3.541043  0.01  -0.389884  0.006644  3.553136  0.011  -0.481163  -0.33755  0.005924  3.533204  0.009
O  O34  1  0.03556207  0.58723269  0.03575209  1  -0.543893  -0.004281  1.919865  -0.007  -0.509183  -0.001707  2.140851  -0.003  -0.532441  -0.001007  2.133748  -0.001  -0.300572  -0.492587  -0.002507  2.145662  -0.004
O  O35  1  0.96444036  0.08724423  0.96424269  1  -0.543793  0.004282  1.920213  0.007  -0.509098  0.001706  2.141189  0.003  -0.532357  0.001003  2.134093  0.001  -0.300516  -0.492501  0.002506  2.146003  0.004
O  O36  1  0.24882485  0.56465628  0.27741279  1  -0.606962  -0.005393  2.206947  -0.009  -0.558787  -0.003448  2.48161  -0.008  -0.600879  -0.003999  2.466403  -0.009  -0.312655  -0.529916  -0.002441  2.492444  -0.005
O  O37  1  0.75117767  0.06464425  0.72259179  1  -0.607068  0.005392  2.207207  0.009  -0.558782  0.003448  2.481842  0.008  -0.600858  0.003998  2.466609  0.009  -0.312675  -0.529907  0.00244  2.492683  0.005
O  O38  1  0.44953278  0.80977266  0.46398172  1  -0.554585  0.034407  2.022133  0.061  -0.518335  0.02559  2.280137  0.045  -0.550757  0.020366  2.266759  0.036  -0.283441  -0.494552  0.031919  2.288966  0.056
O  O39  1  0.55045847  0.30975866  0.53599964  1  -0.554542  -0.034418  2.021893  -0.061  -0.51814  -0.025605  2.279878  -0.045  -0.550551  -0.020376  2.266496  -0.036  -0.283476  -0.494357  -0.03194  2.288708  -0.056
O  O40  1  0.58820010  0.02128711  0.43460057  1  -0.566831  0.008091  2.174695  0.012  -0.515352  0.006484  2.438163  0.01  -0.554615  0.006269  2.42263  0.011  -0.297675  -0.487914  0.007086  2.448865  0.011
O  O41  1  0.41178613  0.52130681  0.56538507  1  -0.56663  -0.008092  2.173816  -0.012  -0.515181  -0.006485  2.437287  -0.01  -0.554462  -0.006274  2.421776  -0.011  -0.297631  -0.487754  -0.007088  2.447996  -0.011
O  O42  1  0.93955193  0.63203392  0.59199842  1  -0.778127  -0.005808  2.021591  -0.009  -0.740065  -0.003801  2.243728  -0.007  -0.774045  -0.003655  2.204888  -0.007  -0.568522  -0.716406  -0.003416  2.270706  -0.007
O  O43  1  0.06044838  0.13203171  0.40800846  1  -0.778092  0.005811  2.021538  0.009  -0.740022  0.0038  2.243664  0.007  -0.773987  0.003653  2.204815  0.007  -0.56846  -0.71635  0.003415  2.270651  0.007
O  O44  1  0.87991243  0.36680155  0.29104783  1  -0.787908  0.002424  1.87242  0.002  -0.742606  0.004505  2.039933  0.004  -0.761003  0.003594  2.006332  0.003  -0.570695  -0.729568  0.005463  2.063844  0.005
O  O45  1  0.12006331  0.86682186  0.70893880  1  -0.787903  -0.002425  1.87226  -0.002  -0.742609  -0.004507  2.039975  -0.004  -0.761015  -0.003595  2.006342  -0.003  -0.57072  -0.729558  -0.005465  2.0639  -0.005
