# generated using pymatgen
data_TbH10C11NO7
_symmetry_space_group_name_H-M   'P 1'
_cell_length_a   8.33570107
_cell_length_b   8.97962428
_cell_length_c   10.50643389
_cell_angle_alpha   105.76963218
_cell_angle_beta   100.49914779
_cell_angle_gamma   97.27446288
_symmetry_Int_Tables_number   1
_chemical_formula_structural   TbH10C11NO7
_chemical_formula_sum   'Tb2 H20 C22 N2 O14'
_cell_volume   731.14490552
_cell_formula_units_Z   2
loop_
 _symmetry_equiv_pos_site_id
 _symmetry_equiv_pos_as_xyz
  1  'x, y, z'
loop_
 _atom_site_type_symbol
 _atom_site_label
 _atom_site_symmetry_multiplicity
 _atom_site_fract_x
 _atom_site_fract_y
 _atom_site_fract_z
 _atom_site_occupancy
 _atom_site_hle17_bader_spin_density
 _atom_site_hle17_ddec_charge
 _atom_site_hle17_ddec_spin_density
 _atom_site_hle17_ddec_sum_bond_order
 _atom_site_hle17_magmom
 _atom_site_hse06_10hf_bader_spin_density
 _atom_site_hse06_10hf_ddec_charge
 _atom_site_hse06_10hf_ddec_spin_density
 _atom_site_hse06_10hf_ddec_sum_bond_order
 _atom_site_hse06_10hf_magmom
 _atom_site_hse06_bader_spin_density
 _atom_site_hse06_ddec_charge
 _atom_site_hse06_ddec_spin_density
 _atom_site_hse06_ddec_sum_bond_order
 _atom_site_hse06_magmom
 _atom_site_pbe_bader_spin_density
 _atom_site_pbe_cm5_charge
 _atom_site_pbe_ddec_charge
 _atom_site_pbe_ddec_spin_density
 _atom_site_pbe_ddec_sum_bond_order
 _atom_site_pbe_magmom
Tb  Tb0  1  0.41817161  0.29110268  0.02808091  1  0  2.264834  0  1.674009  0  0  2.12492  0  2.142937  0  0  2.242392  0  1.971638  0  0  1.534348  2.087986  0  2.177677  0
Tb  Tb1  1  0.58182724  0.70889820  0.97191877  1  0  2.264892  0  1.673932  0  0  2.124997  0  2.14284  0  0  2.24246  0  1.97155  0  0  1.534383  2.088091  0  2.177546  0
H  H2  1  0.74935482  0.19668488  0.37578510  1  0  0.09922  0  0.959933  0  0  0.11275  0  1.014761  0  0  0.116164  0  1.013334  0  0  0.104305  0.110428  0  1.015695  0
H  H3  1  0.25064633  0.80331481  0.62420990  1  0  0.099263  0  0.959901  0  0  0.112785  0  1.014734  0  0  0.116199  0  1.01331  0  0  0.104308  0.110462  0  1.015667  0
H  H4  1  0.65297680  0.29662206  0.58369710  1  0  0.087471  0  0.94674  0  0  0.101198  0  1.002661  0  0  0.104809  0  0.999042  0  0  0.10152  0.098689  0  1.005018  0
H  H5  1  0.34701876  0.70336823  0.41629582  1  0  0.087425  0  0.946711  0  0  0.101152  0  1.002647  0  0  0.104766  0  0.999023  0  0  0.101512  0.098644  0  1.005006  0
H  H6  1  0.75885231  0.76929944  0.56342476  1  0  0.096382  0  0.932049  0  0  0.109401  0  0.986547  0  0  0.113222  0  0.982836  0  0  0.105945  0.106693  0  0.989186  0
H  H7  1  0.24114670  0.23069673  0.43657957  1  0  0.096354  0  0.932104  0  0  0.109373  0  0.986599  0  0  0.113193  0  0.98289  0  0  0.105938  0.106666  0  0.989235  0
H  H8  1  0.85807275  0.67433938  0.35532864  1  0  0.100341  0  0.957638  0  0  0.114061  0  1.012518  0  0  0.117198  0  1.011406  0  0  0.10645  0.11191  0  1.013482  0
H  H9  1  0.14192872  0.32566267  0.64467552  1  0  0.100387  0  0.957561  0  0  0.114095  0  1.012457  0  0  0.117231  0  1.011349  0  0  0.106462  0.111946  0  1.013422  0
H  H10  1  0.94704205  0.16839027  0.27774306  1  0  0.104805  0  0.925441  0  0  0.116906  0  0.987902  0  0  0.118874  0  0.985965  0  0  0.117401  0.11575  0  0.988904  0
H  H11  1  0.05296221  0.83160704  0.72225568  1  0  0.104797  0  0.92546  0  0  0.116908  0  0.987917  0  0  0.118869  0  0.985988  0  0  0.117388  0.115747  0  0.988911  0
H  H12  1  0.99660380  0.20204089  0.13185692  1  0  0.130092  0  0.905544  0  0  0.146508  0  0.957971  0  0  0.148769  0  0.956568  0  0  0.133337  0.144918  0  0.959016  0
H  H13  1  0.00339797  0.79796234  0.86814375  1  0  0.130094  0  0.905542  0  0  0.1465  0  0.957996  0  0  0.148759  0  0.956597  0  0  0.133336  0.144903  0  0.959046  0
H  H14  1  0.00107322  0.41715349  0.09129790  1  0  0.130307  0  0.948197  0  0  0.143435  0  1.00592  0  0  0.146313  0  1.004256  0  0  0.127543  0.141549  0  1.006792  0
H  H15  1  0.99893049  0.58285326  0.90870389  1  0  0.130343  0  0.9482  0  0  0.14345  0  1.005947  0  0  0.146326  0  1.004283  0  0  0.127557  0.141564  0  1.006822  0
H  H16  1  0.03661117  0.57995007  0.23764243  1  0  0.10328  0  0.921584  0  0  0.112664  0  0.987701  0  0  0.114501  0  0.986008  0  0  0.113773  0.111189  0  0.988544  0
H  H17  1  0.96338373  0.42005555  0.76235963  1  0  0.103274  0  0.921595  0  0  0.112701  0  0.987657  0  0  0.114538  0  0.985962  0  0  0.113786  0.111229  0  0.988497  0
H  H18  1  0.54873221  0.15089514  0.78737505  1  0  0.443368  0  0.805213  0  0  0.43215  0  0.84328  0  0  0.440061  0  0.832236  0  0  0.340096  0.426738  0  0.851047  0
H  H19  1  0.45126588  0.84910221  0.21262655  1  0  0.443357  0  0.805256  0  0  0.432145  0  0.84329  0  0  0.440053  0  0.832251  0  0  0.340104  0.426736  0  0.851053  0
H  H20  1  0.53195879  0.32422807  0.78039537  1  0  0.457282  0  0.836832  0  0  0.423908  0  0.90401  0  0  0.435984  0  0.886382  0  0  0.30279  0.415602  0  0.916241  0
H  H21  1  0.46804448  0.67577043  0.21960350  1  0  0.457315  0  0.836787  0  0  0.423946  0  0.903956  0  0  0.43602  0  0.88633  0  0  0.302791  0.415638  0  0.91619  0
C  C22  1  0.81964941  0.42779132  0.35098614  1  0  0.222437  0  3.781466  0  0  0.206537  0  4.037859  0  0  0.219687  0  4.058146  0  0  0.114677  0.197692  0  4.024285  0
C  C23  1  0.18035167  0.57220837  0.64901266  1  0  0.222473  0  3.781412  0  0  0.20656  0  4.037753  0  0  0.219709  0  4.058039  0  0  0.114668  0.197723  0  4.024175  0
C  C24  1  0.75619669  0.32293551  0.41708337  1  0  -0.186354  0  3.75063  0  0  -0.206862  0  4.013671  0  0  -0.21574  0  4.03464  0  0  -0.102072  -0.200987  0  3.99913  0
C  C25  1  0.24380173  0.67706302  0.58291379  1  0  -0.186477  0  3.750555  0  0  -0.206992  0  4.013619  0  0  -0.215871  0  4.034581  0  0  -0.102106  -0.201113  0  3.999074  0
C  C26  1  0.70111558  0.37923870  0.53449446  1  0  -0.037958  0  3.773582  0  0  -0.064293  0  4.028799  0  0  -0.058845  0  4.045952  0  0  -0.08429  -0.067107  0  4.015907  0
C  C27  1  0.29888187  0.62075512  0.46550242  1  0  -0.037746  0  3.773393  0  0  -0.064071  0  4.028591  0  0  -0.05862  0  4.045738  0  0  -0.0842  -0.066887  0  4.015704  0
C  C28  1  0.70417499  0.54073268  0.59102565  1  0  -0.113858  0  3.811781  0  0  -0.094495  0  4.053606  0  0  -0.106648  0  4.077827  0  0  -0.040479  -0.085801  0  4.036307  0
C  C29  1  0.29582363  0.45926113  0.40897331  1  0  -0.113968  0  3.811823  0  0  -0.094616  0  4.053665  0  0  -0.106771  0  4.077884  0  0  -0.040496  -0.085918  0  4.036362  0
C  C30  1  0.75959775  0.64420049  0.52227113  1  0  -0.028716  0  3.748783  0  0  -0.055372  0  4.003978  0  0  -0.049719  0  4.020311  0  0  -0.080525  -0.059136  0  3.992488  0
C  C31  1  0.24040158  0.35579685  0.47772971  1  0  -0.02864  0  3.748761  0  0  -0.055287  0  4.003953  0  0  -0.049631  0  4.020284  0  0  -0.080531  -0.059053  0  3.992458  0
C  C32  1  0.81556935  0.59003700  0.40493719  1  0  -0.176876  0  3.724942  0  0  -0.196827  0  3.98695  0  0  -0.205061  0  4.007185  0  0  -0.102313  -0.191327  0  3.973392  0
C  C33  1  0.18443045  0.40996270  0.59506426  1  0  -0.17701  0  3.724856  0  0  -0.196971  0  3.986904  0  0  -0.205208  0  4.007141  0  0  -0.102332  -0.191476  0  3.973351  0
C  C34  1  0.65429187  0.59953242  0.71940331  1  0  0.651561  0  3.918083  0  0  0.605787  0  4.212819  0  0  0.639131  0  4.21377  0  0  0.190386  0.581574  0  4.21785  0
C  C35  1  0.34570987  0.40046491  0.28059885  1  0  0.651698  0  3.917988  0  0  0.605927  0  4.212712  0  0  0.639272  0  4.213662  0  0  0.190445  0.581721  0  4.21773  0
C  C36  1  0.90126308  0.21138716  0.19197150  1  0  -0.171295  0  3.660114  0  0  -0.234847  0  3.910494  0  0  -0.234555  0  3.915982  0  0  -0.051546  -0.234773  0  3.905298  0
C  C37  1  0.09874113  0.78861605  0.80802955  1  0  -0.171198  0  3.660163  0  0  -0.234842  0  3.910543  0  0  -0.234544  0  3.916028  0  0  -0.051564  -0.234738  0  3.905315  0
C  C38  1  0.74349574  0.09776916  0.10230220  1  0  0.771483  0  3.808183  0  0  0.732857  0  4.098641  0  0  0.768044  0  4.089816  0  0  0.246601  0.709547  0  4.105677  0
C  C39  1  0.25650754  0.90223523  0.89769612  1  0  0.771315  0  3.808549  0  0  0.7328  0  4.098867  0  0  0.767987  0  4.090044  0  0  0.246577  0.709491  0  4.105891  0
C  C40  1  0.94079981  0.48038581  0.16899469  1  0  -0.168269  0  3.672049  0  0  -0.224253  0  3.917117  0  0  -0.224576  0  3.923935  0  0  -0.05366  -0.223425  0  3.911269  0
C  C41  1  0.05920071  0.51961742  0.83100769  1  0  -0.168298  0  3.672155  0  0  -0.224329  0  3.917153  0  0  -0.224658  0  3.923975  0  0  -0.053668  -0.223504  0  3.911317  0
C  C42  1  0.80962981  0.55000088  0.09545103  1  0  0.714927  0  3.825377  0  0  0.669902  0  4.125408  0  0  0.703165  0  4.12362  0  0  0.215815  0.646767  0  4.132491  0
C  C43  1  0.19036796  0.45000119  0.90455447  1  0  0.714817  0  3.825676  0  0  0.669853  0  4.125616  0  0  0.703115  0  4.123829  0  0  0.215741  0.646721  0  4.132688  0
N  N44  1  0.88390106  0.37410702  0.23909311  1  0  -0.131063  0  3.493291  0  0  -0.048562  0  3.724557  0  0  -0.067779  0  3.750912  0  0  -0.281114  -0.034921  0  3.705849  0
N  N45  1  0.11610511  0.62589382  0.76090770  1  0  -0.131128  0  3.49324  0  0  -0.048509  0  3.724351  0  0  -0.067712  0  3.750675  0  0  -0.281114  -0.034881  0  3.705643  0
O  O46  1  0.62167190  0.15485676  0.05756718  1  0  -0.778741  0  2.093292  0  0  -0.731116  0  2.357359  0  0  -0.768162  0  2.339388  0  0  -0.430981  -0.713194  0  2.365821  0
O  O47  1  0.37833458  0.84515115  0.94243054  1  0  -0.778698  0  2.09344  0  0  -0.731103  0  2.357443  0  0  -0.768146  0  2.339469  0  0  -0.430915  -0.713193  0  2.365916  0
O  O48  1  0.74873735  0.95291086  0.07704168  1  0  -0.722521  0  2.004137  0  0  -0.675069  0  2.250429  0  0  -0.710601  0  2.233376  0  0  -0.404708  -0.657224  0  2.258619  0
O  O49  1  0.25125838  0.04709240  0.92295521  1  0  -0.72246  0  2.004182  0  0  -0.675042  0  2.250419  0  0  -0.710578  0  2.23337  0  0  -0.404709  -0.657196  0  2.258611  0
O  O50  1  0.65366938  0.49485127  0.07236421  1  0  -0.81959  0  2.151215  0  0  -0.763438  0  2.419185  0  0  -0.806554  0  2.40939  0  0  -0.431703  -0.744697  0  2.426172  0
O  O51  1  0.34633081  0.50515078  0.92764261  1  0  -0.819445  0  2.151128  0  0  -0.763343  0  2.41911  0  0  -0.806454  0  2.409307  0  0  -0.431669  -0.744629  0  2.426148  0
O  O52  1  0.85928657  0.66605183  0.05682439  1  0  -0.672592  0  1.945161  0  0  -0.629964  0  2.180053  0  0  -0.660329  0  2.168465  0  0  -0.368078  -0.613825  0  2.187481  0
O  O53  1  0.14070738  0.33394908  0.94317643  1  0  -0.672541  0  1.94529  0  0  -0.629945  0  2.180164  0  0  -0.660314  0  2.168578  0  0  -0.36802  -0.613802  0  2.18759  0
O  O54  1  0.60841153  0.50251313  0.78375199  1  0  -0.758436  0  2.066688  0  0  -0.700264  0  2.310092  0  0  -0.734415  0  2.301593  0  0  -0.399135  -0.681375  0  2.316602  0
O  O55  1  0.39159141  0.49748419  0.21625131  1  0  -0.758544  0  2.066762  0  0  -0.700364  0  2.31016  0  0  -0.734516  0  2.301663  0  0  -0.399208  -0.681477  0  2.316671  0
O  O56  1  0.66006035  0.74688927  0.77459651  1  0  -0.711841  0  1.907608  0  0  -0.670265  0  2.140212  0  0  -0.70192  0  2.129382  0  0  -0.400678  -0.654323  0  2.147137  0
O  O57  1  0.33994026  0.25310807  0.22540072  1  0  -0.711871  0  1.90759  0  0  -0.67029  0  2.140184  0  0  -0.701947  0  2.129354  0  0  -0.400674  -0.65435  0  2.147106  0
O  O58  1  0.47952821  0.23038472  0.80317274  1  0  -0.89973  0  1.791538  0  0  -0.857417  0  1.962759  0  0  -0.883464  0  1.926321  0  0  -0.623753  -0.844988  0  1.98357  0
O  O59  1  0.52046897  0.76961381  0.19682519  1  0  -0.899728  0  1.791536  0  0  -0.857425  0  1.962737  0  0  -0.883475  0  1.926314  0  0  -0.623746  -0.844994  0  1.983546  0
