# generated using pymatgen
data_EuH11C18N3O7
_symmetry_space_group_name_H-M   'P 1'
_cell_length_a   7.32506605
_cell_length_b   12.04950862
_cell_length_c   19.17054983
_cell_angle_alpha   82.78790228
_cell_angle_beta   90.00248385
_cell_angle_gamma   90.00313525
_symmetry_Int_Tables_number   1
_chemical_formula_structural   EuH11C18N3O7
_chemical_formula_sum   'Eu4 H44 C72 N12 O28'
_cell_volume   1678.67159117
_cell_formula_units_Z   4
loop_
 _symmetry_equiv_pos_site_id
 _symmetry_equiv_pos_as_xyz
  1  'x, y, z'
loop_
 _atom_site_type_symbol
 _atom_site_label
 _atom_site_symmetry_multiplicity
 _atom_site_fract_x
 _atom_site_fract_y
 _atom_site_fract_z
 _atom_site_occupancy
 _atom_site_pbe_bader_charge
 _atom_site_pbe_bader_spin_density
 _atom_site_pbe_cm5_charge
 _atom_site_pbe_ddec_charge
 _atom_site_pbe_ddec_spin_density
 _atom_site_pbe_ddec_sum_bond_order
 _atom_site_pbe_magmom
Eu  Eu0  1  0.74575179  0.44607565  0.47441562  1  2.195152  0  1.491598  2.106551  0  2.090635  0
Eu  Eu1  1  0.74576599  0.55391748  0.02558291  1  2.194823  0  1.491666  2.106537  0  2.090758  0
Eu  Eu2  1  0.25424793  0.55392314  0.52558324  1  2.1951  0  1.491578  2.106585  0  2.090647  0
Eu  Eu3  1  0.25423647  0.44608346  0.97441802  1  2.194844  0  1.491664  2.106536  0  2.090827  0
H  H4  1  0.25853355  0.87572162  0.26469754  1  0.107759  0  0.116827  0.12451  0  0.96988  0
H  H5  1  0.25848790  0.12428730  0.23531481  1  0.107949  0  0.116777  0.124445  0  0.97023  0
H  H6  1  0.74146481  0.12427840  0.73530393  1  0.107845  0  0.116813  0.124472  0  0.969886  0
H  H7  1  0.74151182  0.87571464  0.76468506  1  0.10794  0  0.116769  0.124416  0  0.970207  0
H  H8  1  0.13343253  0.78782297  0.16319543  1  0.108154  0  0.118732  0.088939  0  1.003888  0
H  H9  1  0.13338913  0.21218774  0.33681645  1  0.10762  0  0.118708  0.088911  0  1.003648  0
H  H10  1  0.86656583  0.21217863  0.83680654  1  0.108145  0  0.118738  0.088914  0  1.003926  0
H  H11  1  0.86660787  0.78781346  0.66318290  1  0.107617  0  0.118706  0.088899  0  1.003667  0
H  H12  1  0.41496376  0.75183677  0.36197736  1  0.146162  0  0.118972  0.119999  0  0.990187  0
H  H13  1  0.41493405  0.24816307  0.13802177  1  0.146294  0  0.11893  0.119912  0  0.990095  0
H  H14  1  0.58503733  0.24816418  0.63802357  1  0.146183  0  0.118983  0.119998  0  0.99016  0
H  H15  1  0.58506977  0.75183879  0.86197862  1  0.14632  0  0.118959  0.120011  0  0.990104  0
H  H16  1  0.65728348  0.90889080  0.21242136  1  0.14852  0  0.10834  0.074447  0  1.038405  0
H  H17  1  0.65724341  0.09109402  0.28756697  1  0.14894  0  0.108322  0.07435  0  1.038502  0
H  H18  1  0.34271624  0.09110690  0.78757909  1  0.148515  0  0.108344  0.074416  0  1.038448  0
H  H19  1  0.34275359  0.90890452  0.71243347  1  0.148567  0  0.108337  0.074382  0  1.038509  0
H  H20  1  0.84162979  0.14186194  0.47565994  1  0.13571  0  0.115046  0.092598  0  1.016205  0
H  H21  1  0.84161187  0.85817829  0.02430087  1  0.135442  0  0.115101  0.092743  0  1.01625  0
H  H22  1  0.15837130  0.85813760  0.52433943  1  0.135684  0  0.115061  0.092629  0  1.016228  0
H  H23  1  0.15838785  0.14182308  0.97569743  1  0.135684  0  0.115099  0.092725  0  1.016268  0
H  H24  1  0.91797534  0.60124510  0.29832214  1  0.096286  0  0.113955  0.116545  0  0.988026  0
H  H25  1  0.91798849  0.39876795  0.20167451  1  0.096704  0  0.113929  0.116531  0  0.988054  0
H  H26  1  0.08202439  0.39875461  0.70167618  1  0.096302  0  0.113912  0.116536  0  0.987983  0
H  H27  1  0.08201123  0.60123040  0.79832698  1  0.097004  0  0.113926  0.116509  0  0.988017  0
H  H28  1  0.75972841  0.71353520  0.19630294  1  0.123887  0  0.117312  0.137098  0  0.985134  0
H  H29  1  0.75969628  0.28646395  0.30369142  1  0.123339  0  0.117346  0.137061  0  0.985009  0
H  H30  1  0.24026994  0.28646425  0.80369695  1  0.123761  0  0.117313  0.137099  0  0.98514  0
H  H31  1  0.24030207  0.71353375  0.69630903  1  0.123338  0  0.117323  0.137022  0  0.984989  0
H  H32  1  0.57485815  0.86755050  0.60099737  1  0.08398  0  0.110274  0.110711  0  0.994939  0
H  H33  1  0.57480682  0.13245871  0.89899797  1  0.083406  0  0.110223  0.110684  0  0.994786  0
H  H34  1  0.42514157  0.13244895  0.39900253  1  0.083944  0  0.11027  0.110706  0  0.994958  0
H  H35  1  0.42519291  0.86754407  0.10100188  1  0.083414  0  0.110245  0.11072  0  0.994787  0
H  H36  1  0.68233546  0.06828438  0.58689188  1  0.061873  0  0.106545  0.113044  0  0.993936  0
H  H37  1  0.68227911  0.93174095  0.91308086  1  0.062071  0  0.106529  0.112905  0  0.993972  0
H  H38  1  0.31766153  0.93171608  0.41310695  1  0.061851  0  0.106543  0.113051  0  0.993932  0
H  H39  1  0.31771925  0.06826174  0.08691952  1  0.061978  0  0.106515  0.112897  0  0.993939  0
H  H40  1  0.02811598  0.37916906  0.36898110  1  0.622505  0  0.301291  0.373882  0  0.964535  0
H  H41  1  0.02817652  0.62084050  0.13101184  1  0.622383  0  0.301215  0.373832  0  0.964711  0
H  H42  1  0.97188374  0.62083056  0.63101774  1  0.622502  0  0.301315  0.3739  0  0.964508  0
H  H43  1  0.97182594  0.37916219  0.86898854  1  0.622418  0  0.30122  0.373843  0  0.964668  0
H  H44  1  0.06094692  0.32803979  0.44531701  1  0.637987  0  0.300144  0.378243  0  0.969569  0
H  H45  1  0.06093954  0.67200784  0.05467323  1  0.639081  0  0.300136  0.378236  0  0.969633  0
H  H46  1  0.93904871  0.67195743  0.55468135  1  0.637958  0  0.300091  0.378172  0  0.969635  0
H  H47  1  0.93906155  0.32799402  0.94532716  1  0.63914  0  0.300146  0.378215  0  0.969658  0
C  C48  1  0.27383171  0.78631424  0.26258803  1  -0.007013  0  -0.077563  -0.124518  0  3.979595  0
C  C49  1  0.27379833  0.21369484  0.23741977  1  -0.006992  0  -0.077633  -0.124741  0  3.97955  0
C  C50  1  0.72616801  0.21368653  0.73741395  1  -0.007087  0  -0.077529  -0.124478  0  3.979554  0
C  C51  1  0.72620276  0.78630628  0.76258011  1  -0.006955  0  -0.077567  -0.124586  0  3.979389  0
C  C52  1  0.37961189  0.60383174  0.31097578  1  -0.076714  0  0.002761  -0.091513  0  3.889075  0
C  C53  1  0.37959714  0.39617735  0.18901742  1  -0.077454  0  0.002748  -0.09153  0  3.888829  0
C  C54  1  0.62038920  0.39616929  0.68902462  1  -0.076754  0  0.002726  -0.091571  0  3.889199  0
C  C55  1  0.62040395  0.60382367  0.81098298  1  -0.075559  0  0.002743  -0.09149  0  3.88886  0
C  C56  1  0.49225343  0.53662427  0.36573475  1  1.562104  0  0.219671  0.630544  0  4.178533  0
C  C57  1  0.49227234  0.46338657  0.13426459  1  1.561614  0  0.219711  0.630632  0  4.178615  0
C  C58  1  0.50775449  0.46337294  0.63426360  1  1.562064  0  0.21975  0.630649  0  4.178327  0
C  C59  1  0.50773694  0.53661827  0.86573785  1  1.561597  0  0.219711  0.630616  0  4.178693  0
C  C60  1  0.20524145  0.73761417  0.20596662  1  0.424402  0  0.050754  0.096991  0  3.97569  0
C  C61  1  0.20520349  0.26239825  0.29403958  1  0.424862  0  0.050899  0.097314  0  3.974945  0
C  C62  1  0.79475691  0.26238677  0.79403430  1  0.424418  0  0.050724  0.097016  0  3.975725  0
C  C63  1  0.79479487  0.73760295  0.70595977  1  0.424848  0  0.050845  0.097214  0  3.975055  0
C  C64  1  0.30240869  0.56114993  0.25280218  1  0.628757  0  0.136963  0.171378  0  3.962506  0
C  C65  1  0.30239354  0.43886272  0.24718798  1  0.577301  0  0.136947  0.171511  0  3.962481  0
C  C66  1  0.69759103  0.43885035  0.74719770  1  0.628762  0  0.13699  0.171437  0  3.962481  0
C  C67  1  0.69760482  0.56113831  0.75281242  1  0.575392  0  0.136993  0.171499  0  3.962456  0
C  C68  1  0.35996676  0.71788909  0.31635607  1  -0.01413  0  -0.053509  -0.031153  0  3.93194  0
C  C69  1  0.35994023  0.28211276  0.18364682  1  -0.014052  0  -0.053465  -0.030982  0  3.931629  0
C  C70  1  0.64003296  0.28211185  0.68364485  1  -0.014092  0  -0.053525  -0.031144  0  3.931876  0
C  C71  1  0.64006086  0.71788975  0.81635461  1  -0.014174  0  -0.053478  -0.031127  0  3.93168  0
C  C72  1  0.77782162  0.88513511  0.44022096  1  0.554543  0  0.127282  0.157832  0  3.952127  0
C  C73  1  0.77777750  0.11488423  0.05975665  1  0.555216  0  0.127324  0.157622  0  3.952708  0
C  C74  1  0.22217947  0.11486518  0.55977893  1  0.554563  0  0.127182  0.157677  0  3.952012  0
C  C75  1  0.22222359  0.88511763  0.94024374  1  0.555225  0  0.127295  0.157687  0  3.952781  0
C  C76  1  0.71161252  0.85159458  0.25621543  1  0.447952  0  0.046626  0.099328  0  3.981665  0
C  C77  1  0.71157414  0.14839678  0.24376793  1  0.446848  0  0.046599  0.099285  0  3.981279  0
C  C78  1  0.28838584  0.14840430  0.74378290  1  0.448024  0  0.046614  0.099328  0  3.981606  0
C  C79  1  0.28842559  0.85160193  0.75623145  1  0.447228  0  0.046556  0.099179  0  3.981235  0
C  C80  1  0.69140780  0.83541866  0.50236339  1  -0.000541  0  -0.010616  -0.122332  0  3.915898  0
C  C81  1  0.69134176  0.16459819  0.99762037  1  -0.001729  0  -0.011028  -0.123424  0  3.916852  0
C  C82  1  0.30859466  0.16458254  0.49763596  1  -0.000561  0  -0.010654  -0.122408  0  3.915803  0
C  C83  1  0.30865933  0.83540468  0.00237896  1  -0.001715  0  -0.010975  -0.123286  0  3.916839  0
C  C84  1  0.79576061  0.83078309  0.37405054  1  0.539568  0  0.130056  0.166427  0  3.932512  0
C  C85  1  0.79571941  0.16921198  0.12593818  1  0.539736  0  0.129964  0.166144  0  3.933162  0
C  C86  1  0.20424048  0.16921452  0.62595044  1  0.540354  0  0.130022  0.166441  0  3.93262  0
C  C87  1  0.20428168  0.83078813  0.87406276  1  0.539752  0  0.129989  0.16612  0  3.933116  0
C  C88  1  0.62633974  0.71675200  0.51418634  1  1.565791  0  0.236137  0.651722  0  4.138705  0
C  C89  1  0.62630724  0.28326273  0.98581179  1  1.5651  0  0.236398  0.652447  0  4.138153  0
C  C90  1  0.37366954  0.28324596  0.48581253  1  1.566465  0  0.236234  0.651847  0  4.138646  0
C  C91  1  0.37370341  0.71673887  0.01419017  1  1.565382  0  0.236407  0.652428  0  4.138127  0
C  C92  1  0.79604015  0.05521128  0.48411415  1  0.532488  0  0.051158  0.110093  0  3.961581  0
C  C93  1  0.79600369  0.94481558  0.01585788  1  0.533458  0  0.051181  0.110008  0  3.96219  0
C  C94  1  0.20395957  0.94478742  0.51588523  1  0.532901  0  0.051115  0.110039  0  3.961669  0
C  C95  1  0.20399603  0.05518571  0.98414094  1  0.532838  0  0.05123  0.110093  0  3.962173  0
C  C96  1  0.88188536  0.72775977  0.36695982  1  -0.106995  0  -0.013234  -0.125267  0  3.935187  0
C  C97  1  0.88186206  0.27223557  0.13303386  1  -0.107611  0  -0.013233  -0.12513  0  3.935005  0
C  C98  1  0.11811573  0.27223793  0.63304063  1  -0.106881  0  -0.013225  -0.125326  0  3.935184  0
C  C99  1  0.11813630  0.72776296  0.86696658  1  -0.107557  0  -0.013264  -0.12525  0  3.935115  0
C  C100  1  0.86040695  0.68317533  0.30329446  1  0.031323  0  -0.066758  -0.047773  0  3.961863  0
C  C101  1  0.86039477  0.31683475  0.19669752  1  0.031713  0  -0.066875  -0.04802  0  3.962032  0
C  C102  1  0.13959414  0.31682421  0.69670492  1  0.031306  0  -0.066713  -0.04773  0  3.961872  0
C  C103  1  0.13960631  0.68316536  0.80330342  1  0.031385  0  -0.066816  -0.04783  0  3.962022  0
C  C104  1  0.77449997  0.74533687  0.24673594  1  -0.051931  0  -0.085945  -0.131903  0  3.960876  0
C  C105  1  0.77447122  0.25466350  0.25325278  1  -0.050953  0  -0.085835  -0.13167  0  3.960487  0
C  C106  1  0.22549839  0.25466433  0.75326341  1  -0.051763  0  -0.085945  -0.131896  0  3.960874  0
C  C107  1  0.22552713  0.74533420  0.74674767  1  -0.050955  0  -0.085838  -0.131666  0  3.960454  0
C  C108  1  0.65189262  0.90322048  0.55490677  1  -0.051933  0  -0.071643  -0.063053  0  3.977398  0
C  C109  1  0.65183921  0.09678693  0.94508109  1  -0.051203  0  -0.071337  -0.062414  0  3.977055  0
C  C110  1  0.34810847  0.09677849  0.44509104  1  -0.051932  0  -0.07165  -0.063036  0  3.977305  0
C  C111  1  0.34816188  0.90321419  0.05491878  1  -0.051215  0  -0.071329  -0.06246  0  3.977254  0
C  C112  1  0.70825882  0.01377041  0.54675688  1  -0.033338  0  -0.0797  -0.110538  0  3.966011  0
C  C113  1  0.70821057  0.98624538  0.95321874  1  -0.033599  0  -0.079873  -0.110675  0  3.966146  0
C  C114  1  0.29174090  0.98622922  0.45324197  1  -0.033355  0  -0.079681  -0.110524  0  3.966043  0
C  C115  1  0.29178779  0.01375590  0.04678008  1  -0.033174  0  -0.079851  -0.110654  0  3.966195  0
C  C116  1  0.00883087  0.66774559  0.41940137  1  1.537126  0  0.207894  0.614361  0  4.225101  0
C  C117  1  0.00881487  0.33226265  0.08059544  1  1.536978  0  0.208072  0.614516  0  4.224903  0
C  C118  1  0.99116475  0.33225263  0.58059593  1  1.537122  0  0.207881  0.614356  0  4.225319  0
C  C119  1  0.99118076  0.66773970  0.91940705  1  1.536964  0  0.208049  0.614552  0  4.22494  0
N  N120  1  0.21554411  0.62730815  0.20137077  1  -1.210211  0  -0.303101  -0.29429  0  3.336881  0
N  N121  1  0.21552590  0.37271140  0.29862164  1  -1.210177  0  -0.303105  -0.294499  0  3.337104  0
N  N122  1  0.78445562  0.37269362  0.79863015  1  -1.210232  0  -0.303073  -0.294287  0  3.336834  0
N  N123  1  0.78447382  0.62728980  0.70137771  1  -1.210104  0  -0.30315  -0.294482  0  3.337143  0
N  N124  1  0.71432408  0.89071828  0.31867436  1  -1.174887  0  -0.309507  -0.293347  0  3.335456  0
N  N125  1  0.71427687  0.10926899  0.18130708  1  -1.174951  0  -0.309331  -0.292919  0  3.33512  0
N  N126  1  0.28567155  0.10928209  0.68132500  1  -1.175804  0  -0.309487  -0.293306  0  3.335518  0
N  N127  1  0.28572422  0.89073046  0.81869282  1  -1.174902  0  -0.309361  -0.292922  0  3.335106  0
N  N128  1  0.82559212  0.99404419  0.43170589  1  -1.174801  0  -0.315154  -0.297921  0  3.320437  0
N  N129  1  0.82556792  0.00598296  0.06826276  1  -1.174852  0  -0.315091  -0.297522  0  3.320567  0
N  N130  1  0.17440761  0.00595286  0.56829352  1  -1.175178  0  -0.31503  -0.297768  0  3.320242  0
N  N131  1  0.17443453  0.99401658  0.93173661  1  -1.174882  0  -0.315135  -0.297632  0  3.320541  0
O  O132  1  0.62419887  0.47724427  0.35019760  1  -1.151509  0  -0.338085  -0.579885  0  2.151456  0
O  O133  1  0.62424124  0.52275043  0.14980482  1  -1.150681  0  -0.33804  -0.579866  0  2.151556  0
O  O134  1  0.37579539  0.52275851  0.64980225  1  -1.151404  0  -0.338163  -0.580008  0  2.151035  0
O  O135  1  0.37575576  0.47724802  0.85019614  1  -1.150514  0  -0.338127  -0.579964  0  2.151368  0
O  O136  1  0.46016520  0.54997992  0.43036463  1  -1.209548  0  -0.447153  -0.767106  0  2.47458  0
O  O137  1  0.46016592  0.45001792  0.06963606  1  -1.209354  0  -0.447179  -0.767177  0  2.474711  0
O  O138  1  0.53983726  0.45002036  0.56963526  1  -1.209555  0  -0.447146  -0.767091  0  2.474718  0
O  O139  1  0.53983380  0.54998320  0.93036381  1  -1.209443  0  -0.447125  -0.76708  0  2.474874  0
O  O140  1  0.74237971  0.63979572  0.50603342  1  -1.211655  0  -0.355141  -0.665541  0  2.379823  0
O  O141  1  0.74235800  0.36021455  0.99396638  1  -1.212014  0  -0.355188  -0.665614  0  2.379674  0
O  O142  1  0.25762138  0.36020457  0.49396647  1  -1.212229  0  -0.355184  -0.665614  0  2.379489  0
O  O143  1  0.25764172  0.63978482  0.00603404  1  -1.211842  0  -0.355269  -0.665725  0  2.379394  0
O  O144  1  0.46230726  0.70017592  0.53316704  1  -1.173186  0  -0.38331  -0.623602  0  2.2731  0
O  O145  1  0.46225803  0.29981586  0.96683654  1  -1.172627  0  -0.383414  -0.623797  0  2.272662  0
O  O146  1  0.53768701  0.29982178  0.46683341  1  -1.17328  0  -0.383321  -0.623571  0  2.273245  0
O  O147  1  0.53773624  0.70018600  0.03316385  1  -1.173048  0  -0.383394  -0.623782  0  2.272932  0
O  O148  1  0.96079487  0.34120002  0.41033189  1  -1.255388  0  -0.633169  -0.813127  0  2.115915  0
O  O149  1  0.96082552  0.65880490  0.08966472  1  -1.256288  0  -0.633035  -0.813086  0  2.116218  0
O  O150  1  0.03920621  0.65879702  0.58966751  1  -1.255322  0  -0.633131  -0.813067  0  2.116016  0
O  O151  1  0.03917693  0.34119280  0.91033573  1  -1.256418  0  -0.633035  -0.813048  0  2.11613  0
O  O152  1  0.00634055  0.55913465  0.42936723  1  -1.197764  0  -0.44029  -0.768218  0  2.38727  0
O  O153  1  0.00637145  0.44087502  0.07062734  1  -1.19802  0  -0.440371  -0.768217  0  2.387359  0
O  O154  1  0.99365917  0.44086489  0.57063214  1  -1.197768  0  -0.440278  -0.768191  0  2.387254  0
O  O155  1  0.99362964  0.55912583  0.92937411  1  -1.198006  0  -0.440376  -0.76827  0  2.387222  0
O  O156  1  0.12682271  0.72031039  0.45037432  1  -1.164568  0  -0.344481  -0.584222  0  2.236292  0
O  O157  1  0.12679770  0.27970505  0.04961778  1  -1.164211  0  -0.344684  -0.584343  0  2.236133  0
O  O158  1  0.87318111  0.27969073  0.54962555  1  -1.164692  0  -0.344473  -0.584208  0  2.236538  0
O  O159  1  0.87320748  0.72029449  0.95038159  1  -1.164315  0  -0.344614  -0.584293  0  2.23636  0
