# generated using pymatgen
data_AlH11(C2O)8
_symmetry_space_group_name_H-M   'P 1'
_cell_length_a   6.69448895
_cell_length_b   20.42594219
_cell_length_c   24.22173878
_cell_angle_alpha   102.58390733
_cell_angle_beta   89.99847629
_cell_angle_gamma   89.99979725
_symmetry_Int_Tables_number   1
_chemical_formula_structural   AlH11(C2O)8
_chemical_formula_sum   'Al4 H44 C64 O32'
_cell_volume   3232.54715348
_cell_formula_units_Z   4
loop_
 _symmetry_equiv_pos_site_id
 _symmetry_equiv_pos_as_xyz
  1  'x, y, z'
loop_
 _atom_site_type_symbol
 _atom_site_label
 _atom_site_symmetry_multiplicity
 _atom_site_fract_x
 _atom_site_fract_y
 _atom_site_fract_z
 _atom_site_occupancy
 _atom_site_pbe_bader_charge
 _atom_site_pbe_bader_spin_density
 _atom_site_pbe_cm5_charge
 _atom_site_pbe_ddec_charge
 _atom_site_pbe_ddec_spin_density
 _atom_site_pbe_ddec_sum_bond_order
 _atom_site_pbe_magmom
Al  Al0  1  0.29217654  0.25382390  0.25079892  1  2.502977  0  0.401818  1.648263  0  2.566422  0
Al  Al1  1  0.70505369  0.74677102  0.75022656  1  2.501829  0  0.402937  1.641489  0  2.568664  0
Al  Al2  1  0.79216443  0.24617072  0.24919459  1  2.503082  0  0.401831  1.64783  0  2.566964  0
Al  Al3  1  0.20504652  0.75322419  0.74977220  1  2.501873  0  0.402907  1.641432  0  2.56891  0
H  H4  1  0.28442097  0.51663728  0.89389981  1  0.072047  0  0.114714  0.125896  0  0.976109  0
H  H5  1  0.73481371  0.47304239  0.08825149  1  0.104002  0  0.115076  0.126846  0  0.982625  0
H  H6  1  0.78444714  0.98336928  0.60611706  1  0.071789  0  0.114695  0.125931  0  0.976222  0
H  H7  1  0.23488071  0.02696595  0.41177012  1  0.104081  0  0.115001  0.126749  0  0.982914  0
H  H8  1  0.71508620  0.67566873  0.90818068  1  0.111148  0  0.117761  0.137724  0  1.003093  0
H  H9  1  0.30287445  0.32099408  0.10134546  1  0.116456  0  0.121027  0.143105  0  0.977864  0
H  H10  1  0.21505735  0.82433791  0.59180561  1  0.110878  0  0.117807  0.137656  0  1.002864  0
H  H11  1  0.80284081  0.17901258  0.39863180  1  0.116606  0  0.121037  0.143023  0  0.977875  0
H  H12  1  0.57384974  0.64022890  0.81978952  1  0.647072  0  0.321027  0.369815  0  0.927289  0
H  H13  1  0.42928675  0.43253792  0.18992498  1  0.626438  0  0.345472  0.383214  0  0.850867  0
H  H14  1  0.07386002  0.85976090  0.68020641  1  0.646954  0  0.320959  0.369784  0  0.927214  0
H  H15  1  0.92933057  0.06735938  0.31008430  1  0.627754  0  0.345619  0.383672  0  0.850492  0
H  H16  1  0.52340550  0.65087311  0.04076530  1  0.063108  0  0.109051  0.079406  0  0.956359  0
H  H17  1  0.67056218  0.70022811  0.00386553  1  0.055203  0  0.099757  0.060456  0  0.983953  0
H  H18  1  0.83273341  0.61899043  0.08695529  1  0.024766  0  0.092203  0.087421  0  0.977192  0
H  H19  1  0.97969890  0.66770535  0.05059173  1  0.029579  0  0.090661  0.082224  0  0.980405  0
H  H20  1  0.79898710  0.77294221  0.10083656  1  0.018845  0  0.087209  0.111818  0  1.001104  0
H  H21  1  0.91036611  0.73108324  0.14998802  1  0.024303  0  0.089352  0.117237  0  0.998228  0
H  H22  1  0.64958677  0.72418374  0.13729180  1  0.01216  0  0.085659  0.108692  0  1.004849  0
H  H23  1  0.40982852  0.36847933  0.93563221  1  0.041875  0  0.106714  0.077329  0  0.956486  0
H  H24  1  0.14802944  0.36447785  0.94720434  1  0.067769  0  0.096114  0.057807  0  1.010791  0
H  H25  1  0.45837532  0.26047032  0.96595035  1  0.034518  0  0.093527  0.087943  0  0.968994  0
H  H26  1  0.20073626  0.25669230  0.98085774  1  0.034198  0  0.091712  0.085014  0  0.977266  0
H  H27  1  0.11724919  0.24775105  0.87793831  1  0.051348  0  0.08571  0.109078  0  1.003262  0
H  H28  1  0.28373449  0.18283809  0.88593546  1  0.053843  0  0.092804  0.122244  0  0.993627  0
H  H29  1  0.37484785  0.25333149  0.86202543  1  0.021242  0  0.08577  0.107929  0  1.005071  0
H  H30  1  0.02344005  0.84915407  0.45924664  1  0.063039  0  0.108905  0.079303  0  0.956375  0
H  H31  1  0.17060607  0.79979783  0.49614939  1  0.054641  0  0.099618  0.060161  0  0.984093  0
H  H32  1  0.33277774  0.88102410  0.41304754  1  0.024742  0  0.092144  0.087399  0  0.977367  0
H  H33  1  0.47973013  0.83230892  0.44941200  1  0.029404  0  0.090755  0.082403  0  0.98042  0
H  H34  1  0.29899387  0.72707259  0.39917750  1  0.018996  0  0.087129  0.111717  0  1.001104  0
H  H35  1  0.41034882  0.76892178  0.35001903  1  0.024155  0  0.089406  0.117355  0  0.998235  0
H  H36  1  0.14957677  0.77583099  0.36272642  1  0.012175  0  0.085678  0.108664  0  1.004815  0
H  H37  1  0.90984098  0.13153197  0.56436018  1  0.041973  0  0.10668  0.077111  0  0.956555  0
H  H38  1  0.64803175  0.13553974  0.55278443  1  0.067909  0  0.096111  0.057728  0  1.010689  0
H  H39  1  0.95839643  0.23954502  0.53404467  1  0.034469  0  0.09359  0.08803  0  0.968995  0
H  H40  1  0.70076091  0.24332659  0.51914073  1  0.034186  0  0.091766  0.08516  0  0.977121  0
H  H41  1  0.61726884  0.25225987  0.62205899  1  0.051698  0  0.085735  0.109072  0  1.003288  0
H  H42  1  0.78374249  0.31717628  0.61406517  1  0.053384  0  0.092754  0.122196  0  0.993605  0
H  H43  1  0.87487904  0.24667952  0.63796934  1  0.021296  0  0.08569  0.107832  0  1.005134  0
H  H44  1  0.56055759  0.33869378  0.26103373  1  0.635322  0  0.34598  0.432296  0  0.862364  0
H  H45  1  0.43808605  0.66112330  0.73195955  1  0.637186  0  0.346108  0.431871  0  0.863595  0
H  H46  1  0.06056056  0.16130331  0.23901054  1  0.634578  0  0.345988  0.43241  0  0.862204  0
H  H47  1  0.93807960  0.83887071  0.76803644  1  0.637301  0  0.346084  0.431775  0  0.863721  0
C  C48  1  0.53557016  0.16121223  0.16595930  1  1.690127  0  0.278071  0.698457  0  4.181948  0
C  C49  1  0.45975109  0.83972217  0.83280452  1  1.687922  0  0.281566  0.710949  0  4.163467  0
C  C50  1  0.03551878  0.33877524  0.33403363  1  1.691612  0  0.278029  0.698451  0  4.18234  0
C  C51  1  0.95977561  0.66026945  0.66719713  1  1.687622  0  0.281574  0.711004  0  4.163073  0
C  C52  1  0.53542055  0.17961442  0.31775478  1  1.598257  0  0.270848  0.648987  0  4.096231  0
C  C53  1  0.46239549  0.81879802  0.67937713  1  1.560542  0  0.275605  0.651717  0  4.065124  0
C  C54  1  0.03540698  0.32037521  0.18223904  1  1.598631  0  0.270542  0.648452  0  4.097209  0
C  C55  1  0.96245200  0.68119906  0.82061409  1  1.561905  0  0.275478  0.651691  0  4.065533  0
C  C56  1  0.15787600  0.55059726  0.89579197  1  -0.017863  0  -0.073672  -0.131963  0  3.918544  0
C  C57  1  0.85877725  0.43952790  0.09141506  1  0.018712  0  -0.069096  -0.115631  0  3.903751  0
C  C58  1  0.65790782  0.94940661  0.60421030  1  -0.018042  0  -0.073722  -0.132014  0  3.918666  0
C  C59  1  0.35883004  0.06047156  0.40859651  1  0.019258  0  -0.069013  -0.115365  0  3.903521  0
C  C60  1  0.14679390  0.59413688  0.85905121  1  0.039422  0  -0.005971  -0.038826  0  3.955231  0
C  C61  1  0.86515612  0.40608518  0.13581865  1  0.007416  0  -0.013474  -0.062539  0  3.972682  0
C  C62  1  0.64679853  0.90586376  0.64094814  1  0.039003  0  -0.006  -0.039098  0  3.955026  0
C  C63  1  0.36516312  0.09391071  0.36418565  1  0.007779  0  -0.013348  -0.062658  0  3.973035  0
C  C64  1  0.98222165  0.63801879  0.86247229  1  -0.010003  0  -0.010724  -0.053368  0  3.972016  0
C  C65  1  0.02731717  0.36285593  0.13929212  1  -0.011145  0  -0.004377  -0.037725  0  3.952483  0
C  C66  1  0.48220765  0.86197216  0.63751906  1  -0.009064  0  -0.01067  -0.053222  0  3.971793  0
C  C67  1  0.52730151  0.13714002  0.36070400  1  -0.011652  0  -0.004478  -0.037645  0  3.95282  0
C  C68  1  0.83886036  0.64058101  0.90478645  1  0.032398  0  -0.090494  -0.21057  0  3.993242  0
C  C69  1  0.17889593  0.35469136  0.09888686  1  0.028813  0  -0.085351  -0.201746  0  3.976879  0
C  C70  1  0.33888089  0.85942282  0.59520551  1  0.032766  0  -0.090484  -0.210528  0  3.993219  0
C  C71  1  0.67888405  0.14531502  0.40110109  1  0.028053  0  -0.085205  -0.201453  0  3.976525  0
C  C72  1  0.84985280  0.59732905  0.94187707  1  0.522442  0  0.094193  0.220025  0  4.028352  0
C  C73  1  0.17494736  0.38885167  0.05494777  1  0.522036  0  0.100173  0.230101  0  4.024315  0
C  C74  1  0.34989311  0.90268105  0.55812460  1  0.522311  0  0.094219  0.220388  0  4.027831  0
C  C75  1  0.67498287  0.11116499  0.44505094  1  0.522959  0  0.100168  0.229788  0  4.024193  0
C  C76  1  0.00877288  0.55043709  0.93699948  1  0.13117  0  -0.001693  0.04496  0  4.108061  0
C  C77  1  0.01357933  0.43270623  0.05096418  1  0.098611  0  -0.004285  0.032482  0  4.108381  0
C  C78  1  0.50881044  0.94957282  0.56300162  1  0.131797  0  -0.001722  0.045039  0  4.107902  0
C  C79  1  0.51363621  0.06731172  0.44904514  1  0.09863  0  -0.004569  0.03211  0  4.108573  0
C  C80  1  0.01590991  0.50680596  0.97473659  1  0.112585  0  -0.035211  -0.081175  0  4.114228  0
C  C81  1  0.01272400  0.47146947  0.00938322  1  -0.466322  0  -0.034671  -0.080866  0  4.128413  0
C  C82  1  0.51593887  0.99321490  0.52527562  1  0.111995  0  -0.035014  -0.081238  0  4.114585  0
C  C83  1  0.51277819  0.02855505  0.49063340  1  -0.467025  0  -0.034711  -0.080665  0  4.128202  0
C  C84  1  0.96554329  0.60969746  0.61571967  1  0.052009  0  0.001518  -0.139277  0  3.828077  0
C  C85  1  0.02603014  0.38870558  0.38614703  1  0.141757  0  0.008581  -0.119085  0  3.813003  0
C  C86  1  0.46550631  0.89028899  0.88428267  1  0.051814  0  0.001662  -0.139069  0  3.828125  0
C  C87  1  0.52604615  0.11127087  0.11384954  1  0.142453  0  0.00853  -0.119266  0  3.812466  0
C  C88  1  0.97649214  0.56697596  0.57157676  1  -0.184578  0  -0.003869  0.036392  0  4.257391  0
C  C89  1  0.01473774  0.43105164  0.43049923  1  -0.212889  0  -0.008333  0.020619  0  4.255619  0
C  C90  1  0.47645010  0.93301817  0.92842228  1  -0.184713  0  -0.003949  0.036258  0  4.257322  0
C  C91  1  0.51473189  0.06893526  0.06949428  1  -0.213813  0  -0.008265  0.020851  0  4.25584  0
C  C92  1  0.98910243  0.52022613  0.52339510  1  0.0938  0  -0.000987  -0.009598  0  4.191297  0
C  C93  1  0.00164797  0.47742279  0.47892083  1  -0.052641  0  0.00406  0.005524  0  4.189112  0
C  C94  1  0.48908296  0.97977157  0.97659550  1  0.09403  0  -0.000945  -0.009382  0  4.191177  0
C  C95  1  0.50162250  0.02256911  0.02107374  1  -0.052677  0  0.003928  0.00517  0  4.189371  0
C  C96  1  0.31296764  0.59685452  0.81767378  1  1.568956  0  0.236773  0.603136  0  4.124007  0
C  C97  1  0.70871166  0.42020506  0.18073277  1  1.477483  0  0.235584  0.586992  0  4.116734  0
C  C98  1  0.81294889  0.90314128  0.68233126  1  1.567642  0  0.236882  0.603515  0  4.123945  0
C  C99  1  0.20871589  0.07977868  0.31928097  1  1.478043  0  0.235615  0.587513  0  4.116295  0
C  C100  1  0.67309902  0.65648453  0.02371470  1  0.382457  0  -0.061393  0.033953  0  3.889545  0
C  C101  1  0.83171701  0.66465187  0.06982208  1  -0.005721  0  -0.169505  -0.13788  0  3.989859  0
C  C102  1  0.79554468  0.72662402  0.11697376  1  -0.039606  0  -0.241097  -0.350586  0  3.985843  0
C  C103  1  0.29511059  0.34911598  0.96036183  1  0.397441  0  -0.064178  0.03026  0  3.888947  0
C  C104  1  0.30899692  0.27330072  0.95249023  1  -0.043533  0  -0.16952  -0.138189  0  3.995191  0
C  C105  1  0.26897117  0.23738360  0.89125437  1  -0.103445  0  -0.240906  -0.348448  0  3.983244  0
C  C106  1  0.17312562  0.84353495  0.47629333  1  0.382611  0  -0.061157  0.034486  0  3.889077  0
C  C107  1  0.33174918  0.83536441  0.43018206  1  -0.005393  0  -0.169528  -0.138132  0  3.990473  0
C  C108  1  0.29554257  0.77338919  0.38303567  1  -0.03947  0  -0.241076  -0.350543  0  3.985966  0
C  C109  1  0.79513736  0.15090411  0.53962915  1  0.396898  0  -0.064183  0.030462  0  3.888967  0
C  C110  1  0.80902163  0.22671544  0.54750646  1  -0.043524  0  -0.169529  -0.138415  0  3.995197  0
C  C111  1  0.76898750  0.26262936  0.60874510  1  -0.103505  0  -0.24083  -0.348272  0  3.983174  0
O  O112  1  0.70802971  0.19001318  0.29897713  1  -1.253881  0  -0.236589  -0.599266  0  2.332723  0
O  O113  1  0.28609832  0.80769050  0.69642413  1  -1.25216  0  -0.229898  -0.593285  0  2.338116  0
O  O114  1  0.20805794  0.30996169  0.20100023  1  -1.253556  0  -0.23664  -0.599392  0  2.332334  0
O  O115  1  0.78611284  0.69230215  0.80357054  1  -1.252004  0  -0.230008  -0.593535  0  2.337717  0
O  O116  1  0.36884737  0.18450752  0.18638143  1  -1.230875  0  -0.218746  -0.563174  0  2.29126  0
O  O117  1  0.62775253  0.81573705  0.81369191  1  -1.234156  0  -0.221895  -0.572661  0  2.296862  0
O  O118  1  0.86881523  0.31547196  0.31362586  1  -1.231728  0  -0.21874  -0.563313  0  2.291599  0
O  O119  1  0.12777127  0.68425821  0.68630833  1  -1.233909  0  -0.22183  -0.572617  0  2.296993  0
O  O120  1  0.37108293  0.20298950  0.30475274  1  -1.247025  0  -0.22731  -0.581423  0  2.391107  0
O  O121  1  0.62327479  0.79738794  0.69636625  1  -1.251702  0  -0.218396  -0.574384  0  2.417649  0
O  O122  1  0.87111324  0.29701550  0.19525043  1  -1.247804  0  -0.226983  -0.580666  0  2.3921  0
O  O123  1  0.12328045  0.70259401  0.80362533  1  -1.25265  0  -0.218047  -0.573879  0  2.418381  0
O  O124  1  0.20884951  0.32340282  0.31383777  1  -1.224467  0  -0.220963  -0.566898  0  2.282499  0
O  O125  1  0.78869738  0.67633568  0.68896509  1  -1.238271  0  -0.222991  -0.57374  0  2.281828  0
O  O126  1  0.70887530  0.17659577  0.18614261  1  -1.223366  0  -0.220977  -0.566817  0  2.282765  0
O  O127  1  0.28868072  0.82365491  0.81103752  1  -1.238246  0  -0.223013  -0.573821  0  2.282254  0
O  O128  1  0.54629079  0.29017976  0.25301331  1  -1.436223  0  -0.450059  -0.999673  0  2.190475  0
O  O129  1  0.45138169  0.70926343  0.74687404  1  -1.439139  0  -0.451245  -1.001963  0  2.195411  0
O  O130  1  0.04629494  0.20981625  0.24698224  1  -1.435559  0  -0.450102  -0.999766  0  2.190124  0
O  O131  1  0.95137748  0.79073365  0.75311980  1  -1.439331  0  -0.451255  -1.001782  0  2.195375  0
O  O132  1  0.30795768  0.57320484  0.76671579  1  -1.14317  0  -0.298469  -0.498405  0  2.057699  0
O  O133  1  0.46924257  0.62941798  0.84564028  1  -1.158933  0  -0.330539  -0.482946  0  2.332807  0
O  O134  1  0.73754068  0.42762517  0.23162310  1  -1.118929  0  -0.29208  -0.494666  0  2.090235  0
O  O135  1  0.52487578  0.42591045  0.15850739  1  -1.118846  0  -0.325026  -0.472928  0  2.274046  0
O  O136  1  0.80794763  0.92678688  0.73328879  1  -1.141697  0  -0.298467  -0.498509  0  2.057763  0
O  O137  1  0.96922807  0.87058090  0.65436271  1  -1.158665  0  -0.33058  -0.48313  0  2.332711  0
O  O138  1  0.23750889  0.07238951  0.26838979  1  -1.118692  0  -0.291958  -0.494766  0  2.090169  0
O  O139  1  0.02491654  0.07400708  0.34150773  1  -1.120814  0  -0.325306  -0.473807  0  2.273664  0
O  O140  1  0.70469935  0.59561215  0.98127174  1  -1.086437  0  -0.194954  -0.225733  0  2.515188  0
O  O141  1  0.33377664  0.38208698  0.01883375  1  -1.070899  0  -0.197224  -0.23106  0  2.503773  0
O  O142  1  0.20474211  0.90441394  0.51873567  1  -1.086156  0  -0.19498  -0.226047  0  2.514719  0
O  O143  1  0.83381339  0.11794834  0.48115816  1  -1.070447  0  -0.197181  -0.230755  0  2.503795  0
