# generated using pymatgen
data_CuH10C12IN3
_symmetry_space_group_name_H-M   'P 1'
_cell_length_a   7.29024055
_cell_length_b   10.38027795
_cell_length_c   16.33235358
_cell_angle_alpha   90.00044244
_cell_angle_beta   89.99944513
_cell_angle_gamma   103.14186070
_symmetry_Int_Tables_number   1
_chemical_formula_structural   CuH10C12IN3
_chemical_formula_sum   'Cu4 H40 C48 I4 N12'
_cell_volume   1203.57704249
_cell_formula_units_Z   4
loop_
 _symmetry_equiv_pos_site_id
 _symmetry_equiv_pos_as_xyz
  1  'x, y, z'
loop_
 _atom_site_type_symbol
 _atom_site_label
 _atom_site_symmetry_multiplicity
 _atom_site_fract_x
 _atom_site_fract_y
 _atom_site_fract_z
 _atom_site_occupancy
 _atom_site_hle17_bader_spin_density
 _atom_site_hle17_ddec_charge
 _atom_site_hle17_ddec_spin_density
 _atom_site_hle17_ddec_sum_bond_order
 _atom_site_hle17_magmom
 _atom_site_hse06_10hf_bader_spin_density
 _atom_site_hse06_10hf_ddec_charge
 _atom_site_hse06_10hf_ddec_spin_density
 _atom_site_hse06_10hf_ddec_sum_bond_order
 _atom_site_hse06_10hf_magmom
 _atom_site_hse06_bader_spin_density
 _atom_site_hse06_ddec_charge
 _atom_site_hse06_ddec_spin_density
 _atom_site_hse06_ddec_sum_bond_order
 _atom_site_hse06_magmom
 _atom_site_pbe_bader_spin_density
 _atom_site_pbe_cm5_charge
 _atom_site_pbe_ddec_charge
 _atom_site_pbe_ddec_spin_density
 _atom_site_pbe_ddec_sum_bond_order
 _atom_site_pbe_magmom
Cu  Cu0  1  0.50309226  0.94577113  0.06771225  1  0  0.255889  0  2.231711  0  0  0.158767  0  2.744899  0  0  0.171014  0  2.685641  0  0  0.317551  0.153326  0  2.782902  0
Cu  Cu1  1  0.99690166  0.55424063  0.56771284  1  0  0.255826  0  2.231851  0  0  0.15869  0  2.745069  0  0  0.170974  0  2.685811  0  0  0.317547  0.153252  0  2.783073  0
Cu  Cu2  1  0.49690857  0.05423137  0.93227803  1  0  0.25579  0  2.231842  0  0  0.158669  0  2.745036  0  0  0.170928  0  2.685785  0  0  0.317558  0.153233  0  2.783027  0
Cu  Cu3  1  0.00309553  0.44575494  0.43229214  1  0  0.255884  0  2.231811  0  0  0.158811  0  2.744998  0  0  0.171041  0  2.685739  0  0  0.317572  0.153377  0  2.783003  0
H  H4  1  0.93090627  0.05140934  0.11602423  1  0  0.068394  0  0.953337  0  0  0.074548  0  1.025418  0  0  0.07797  0  1.021894  0  0  0.099839  0.071946  0  1.028033  0
H  H5  1  0.56908623  0.44858098  0.61602744  1  0  0.068408  0  0.953255  0  0  0.074563  0  1.025337  0  0  0.077984  0  1.021814  0  0  0.099861  0.071961  0  1.027951  0
H  H6  1  0.06909651  0.94859909  0.88397156  1  0  0.068412  0  0.953426  0  0  0.074612  0  1.025456  0  0  0.078035  0  1.021932  0  0  0.099879  0.07201  0  1.028075  0
H  H7  1  0.43091393  0.55140271  0.38398489  1  0  0.068424  0  0.953116  0  0  0.074516  0  1.025281  0  0  0.077936  0  1.021759  0  0  0.099807  0.071912  0  1.027898  0
H  H8  1  0.11371920  0.06671427  0.24542076  1  0  0.097356  0  0.950107  0  0  0.108256  0  1.010896  0  0  0.11163  0  1.009828  0  0  0.099675  0.105766  0  1.011937  0
H  H9  1  0.38627952  0.43324761  0.74542556  1  0  0.097325  0  0.950204  0  0  0.108341  0  1.010884  0  0  0.111723  0  1.009805  0  0  0.099684  0.105851  0  1.011928  0
H  H10  1  0.88626525  0.93328430  0.75457932  1  0  0.097318  0  0.950086  0  0  0.108216  0  1.010893  0  0  0.111574  0  1.009841  0  0  0.099689  0.105727  0  1.011936  0
H  H11  1  0.61373791  0.56674694  0.25458860  1  0  0.097277  0  0.950116  0  0  0.108257  0  1.010834  0  0  0.111639  0  1.009757  0  0  0.099729  0.105758  0  1.011885  0
H  H12  1  0.94268372  0.97327985  0.37537981  1  0  0.087181  0  0.953916  0  0  0.100129  0  1.012472  0  0  0.102906  0  1.009974  0  0  0.099893  0.097861  0  1.014711  0
H  H13  1  0.55730415  0.52670004  0.87538097  1  0  0.087208  0  0.95398  0  0  0.100155  0  1.01253  0  0  0.102934  0  1.010017  0  0  0.099881  0.097889  0  1.014774  0
H  H14  1  0.05729550  0.02672368  0.62461904  1  0  0.08719  0  0.953875  0  0  0.100148  0  1.012415  0  0  0.102924  0  1.00992  0  0  0.099844  0.09788  0  1.014663  0
H  H15  1  0.44270273  0.47330839  0.12463013  1  0  0.087121  0  0.954079  0  0  0.1001  0  1.012599  0  0  0.102881  0  1.010091  0  0  0.099902  0.097835  0  1.014838  0
H  H16  1  0.60208353  0.86568661  0.36741451  1  0  0.107341  0  0.962032  0  0  0.118376  0  1.021916  0  0  0.120834  0  1.022947  0  0  0.101061  0.116537  0  1.021364  0
H  H17  1  0.89789532  0.63430708  0.86741593  1  0  0.107398  0  0.962094  0  0  0.11844  0  1.021949  0  0  0.120873  0  1.023039  0  0  0.101096  0.116605  0  1.021404  0
H  H18  1  0.39790280  0.13432185  0.63257884  1  0  0.107307  0  0.962104  0  0  0.118423  0  1.021897  0  0  0.120858  0  1.022988  0  0  0.101116  0.116587  0  1.021346  0
H  H19  1  0.10211013  0.36570531  0.13258782  1  0  0.107325  0  0.961985  0  0  0.118346  0  1.021858  0  0  0.120789  0  1.022955  0  0  0.101023  0.116507  0  1.021308  0
H  H20  1  0.25169093  0.76779780  0.34685339  1  0  0.126001  0  0.974921  0  0  0.135541  0  1.036221  0  0  0.138497  0  1.035923  0  0  0.103095  0.133294  0  1.036791  0
H  H21  1  0.24828237  0.73219285  0.84685657  1  0  0.125922  0  0.974902  0  0  0.135494  0  1.036161  0  0  0.138452  0  1.03586  0  0  0.103082  0.133252  0  1.036732  0
H  H22  1  0.74830338  0.23220570  0.65313995  1  0  0.125912  0  0.974877  0  0  0.135446  0  1.036212  0  0  0.138403  0  1.03591  0  0  0.103039  0.133196  0  1.036799  0
H  H23  1  0.75171493  0.26781559  0.15314229  1  0  0.12594  0  0.974923  0  0  0.135508  0  1.036195  0  0  0.138467  0  1.035891  0  0  0.103074  0.133261  0  1.036768  0
H  H24  1  0.94274108  0.68959162  0.24957177  1  0  0.10714  0  0.951598  0  0  0.118868  0  1.015353  0  0  0.121792  0  1.012832  0  0  0.116952  0.116672  0  1.017079  0
H  H25  1  0.55724398  0.81040496  0.74958290  1  0  0.107231  0  0.951492  0  0  0.118936  0  1.015269  0  0  0.121863  0  1.01274  0  0  0.116963  0.116735  0  1.017006  0
H  H26  1  0.05725337  0.31040396  0.75042342  1  0  0.107213  0  0.951548  0  0  0.118907  0  1.015335  0  0  0.12183  0  1.012813  0  0  0.116963  0.116716  0  1.017058  0
H  H27  1  0.44276717  0.18959554  0.25042269  1  0  0.107139  0  0.951524  0  0  0.118842  0  1.015304  0  0  0.121769  0  1.012775  0  0  0.116916  0.116637  0  1.017044  0
H  H28  1  0.07756292  0.83690331  0.04046149  1  0  0.091799  0  0.93  0  0  0.100969  0  1.007059  0  0  0.103575  0  1.003421  0  0  0.109146  0.098738  0  1.010019  0
H  H29  1  0.42243428  0.66309841  0.54046906  1  0  0.091834  0  0.930023  0  0  0.101022  0  1.007042  0  0  0.103631  0  1.003404  0  0  0.10919  0.098785  0  1.009998  0
H  H30  1  0.92242079  0.16308042  0.95952574  1  0  0.091832  0  0.930054  0  0  0.100968  0  1.007084  0  0  0.103573  0  1.003438  0  0  0.109196  0.098734  0  1.010042  0
H  H31  1  0.57759681  0.33691690  0.45953163  1  0  0.091789  0  0.930013  0  0  0.100919  0  1.007078  0  0  0.103525  0  1.003429  0  0  0.109163  0.098695  0  1.010051  0
H  H32  1  0.87687743  0.76253886  0.09897408  1  0  0.088982  0  0.936297  0  0  0.102404  0  1.001839  0  0  0.103362  0  1.001732  0  0  0.108101  0.101659  0  1.002052  0
H  H33  1  0.62311001  0.73745934  0.59898150  1  0  0.089075  0  0.936278  0  0  0.102513  0  1.001768  0  0  0.103473  0  1.00166  0  0  0.108116  0.101767  0  1.001983  0
H  H34  1  0.12309321  0.23744687  0.90102539  1  0  0.08912  0  0.93631  0  0  0.102524  0  1.001779  0  0  0.103478  0  1.001669  0  0  0.108147  0.10178  0  1.001991  0
H  H35  1  0.37689944  0.26254018  0.40102899  1  0  0.089012  0  0.936353  0  0  0.102429  0  1.00183  0  0  0.103382  0  1.00172  0  0  0.108133  0.101701  0  1.00205  0
H  H36  1  0.71550781  0.54701138  0.06557087  1  0  0.086709  0  0.962272  0  0  0.099069  0  1.022344  0  0  0.101833  0  1.020967  0  0  0.095923  0.096889  0  1.023721  0
H  H37  1  0.78449613  0.95298054  0.56556519  1  0  0.086694  0  0.962436  0  0  0.099056  0  1.022496  0  0  0.101819  0  1.021121  0  0  0.09591  0.096891  0  1.02386  0
H  H38  1  0.28446743  0.45296741  0.93442921  1  0  0.086713  0  0.962358  0  0  0.099117  0  1.022343  0  0  0.101881  0  1.020966  0  0  0.095942  0.096924  0  1.023737  0
H  H39  1  0.21554077  0.04703574  0.43444162  1  0  0.086673  0  0.96219  0  0  0.099094  0  1.022174  0  0  0.101859  0  1.020793  0  0  0.095914  0.096895  0  1.023574  0
H  H40  1  0.30292444  0.66939588  0.00267729  1  0  0.086827  0  1.00103  0  0  0.091676  0  1.077517  0  0  0.095729  0  1.074136  0  0  0.083777  0.088584  0  1.080269  0
H  H41  1  0.19707814  0.83061142  0.50269159  1  0  0.086935  0  1.00089  0  0  0.091705  0  1.077464  0  0  0.095754  0  1.074086  0  0  0.08377  0.088614  0  1.08021  0
H  H42  1  0.69704596  0.33058490  0.99732157  1  0  0.086729  0  1.001047  0  0  0.091533  0  1.077634  0  0  0.095582  0  1.074259  0  0  0.083722  0.08844  0  1.080384  0
H  H43  1  0.80296601  0.16940188  0.49731094  1  0  0.086699  0  1.001006  0  0  0.091575  0  1.077512  0  0  0.095628  0  1.074131  0  0  0.083755  0.088478  0  1.08027  0
C  C44  1  0.86236774  0.01155494  0.17302158  1  0  0.124558  0  3.720564  0  0  0.095701  0  3.975352  0  0  0.10255  0  3.991253  0  0  0.037802  0.091159  0  3.965212  0
C  C45  1  0.63762442  0.48843391  0.67302529  1  0  0.124546  0  3.720407  0  0  0.095699  0  3.975264  0  0  0.102553  0  3.991174  0  0  0.037766  0.091158  0  3.965118  0
C  C46  1  0.13762891  0.98845152  0.82697177  1  0  0.124478  0  3.72079  0  0  0.095578  0  3.97559  0  0  0.102421  0  3.99149  0  0  0.037754  0.091039  0  3.965445  0
C  C47  1  0.36236801  0.51155969  0.32698214  1  0  0.124524  0  3.720306  0  0  0.095723  0  3.975148  0  0  0.102578  0  3.991052  0  0  0.037867  0.091182  0  3.965  0
C  C48  1  0.96370060  0.02068711  0.24584616  1  0  -0.121552  0  3.751957  0  0  -0.137416  0  4.006883  0  0  -0.143599  0  4.027344  0  0  -0.09126  -0.133842  0  3.993824  0
C  C49  1  0.53629092  0.47928360  0.74585211  1  0  -0.121611  0  3.751877  0  0  -0.137599  0  4.006821  0  0  -0.143789  0  4.027277  0  0  -0.091332  -0.134024  0  3.993763  0
C  C50  1  0.03628403  0.97932037  0.75414841  1  0  -0.121447  0  3.7519  0  0  -0.137303  0  4.006831  0  0  -0.14347  0  4.027299  0  0  -0.091284  -0.133729  0  3.993771  0
C  C51  1  0.46371522  0.52070998  0.25416145  1  0  -0.121434  0  3.751738  0  0  -0.137355  0  4.006666  0  0  -0.143545  0  4.027123  0  0  -0.091306  -0.133774  0  3.993612  0
C  C52  1  0.86921369  0.96922273  0.31709259  1  0  -0.004665  0  3.744661  0  0  -0.025077  0  3.997539  0  0  -0.019779  0  4.01366  0  0  -0.075313  -0.028495  0  3.986873  0
C  C53  1  0.63077534  0.53075268  0.81709834  1  0  -0.004693  0  3.744572  0  0  -0.025109  0  3.997476  0  0  -0.019802  0  4.01359  0  0  -0.075336  -0.02853  0  3.986814  0
C  C54  1  0.13077859  0.03077880  0.68290504  1  0  -0.004828  0  3.745045  0  0  -0.025267  0  3.997963  0  0  -0.019965  0  4.014079  0  0  -0.075344  -0.028684  0  3.987295  0
C  C55  1  0.36923823  0.46924683  0.18291460  1  0  -0.004792  0  3.744739  0  0  -0.025251  0  3.997712  0  0  -0.019951  0  4.013842  0  0  -0.075468  -0.028672  0  3.987044  0
C  C56  1  0.67863400  0.90817923  0.31290424  1  0  -0.143638  0  3.708925  0  0  -0.16241  0  3.955211  0  0  -0.169098  0  3.975916  0  0  -0.087385  -0.158122  0  3.941425  0
C  C57  1  0.82136303  0.59181196  0.81290885  1  0  -0.143662  0  3.708832  0  0  -0.162459  0  3.955062  0  0  -0.169151  0  3.975757  0  0  -0.087396  -0.158171  0  3.941288  0
C  C58  1  0.32135601  0.09181537  0.68708727  1  0  -0.143615  0  3.708969  0  0  -0.162416  0  3.955238  0  0  -0.169093  0  3.975897  0  0  -0.08743  -0.158131  0  3.941466  0
C  C59  1  0.17864959  0.40820141  0.18709369  1  0  -0.143516  0  3.708595  0  0  -0.16222  0  3.954815  0  0  -0.168913  0  3.975486  0  0  -0.08731  -0.157932  0  3.94104  0
C  C60  1  0.58664344  0.90116096  0.23731581  1  0  0.185756  0  3.770108  0  0  0.185702  0  4.005482  0  0  0.193203  0  4.023134  0  0  0.111155  0.180371  0  3.99406  0
C  C61  1  0.91334517  0.59884144  0.73731576  1  0  0.18577  0  3.770374  0  0  0.185824  0  4.005605  0  0  0.193334  0  4.023252  0  0  0.111223  0.180493  0  3.994187  0
C  C62  1  0.41335505  0.09883857  0.76267999  1  0  0.185903  0  3.769976  0  0  0.185779  0  4.00542  0  0  0.193289  0  4.02306  0  0  0.111177  0.180444  0  3.994001  0
C  C63  1  0.08665527  0.40116403  0.26268677  1  0  0.185821  0  3.770221  0  0  0.185788  0  4.00563  0  0  0.1933  0  4.023276  0  0  0.111245  0.180457  0  3.994211  0
C  C64  1  0.38868816  0.83748293  0.22593315  1  0  0.109936  0  3.805115  0  0  0.100121  0  4.063051  0  0  0.105235  0  4.082243  0  0  0.082469  0.09678  0  4.050456  0
C  C65  1  0.11130222  0.66251848  0.72593720  1  0  0.109899  0  3.805169  0  0  0.100068  0  4.063068  0  0  0.105184  0  4.082258  0  0  0.082457  0.096717  0  4.050493  0
C  C66  1  0.61130073  0.16251662  0.77405897  1  0  0.109699  0  3.805302  0  0  0.099965  0  4.06317  0  0  0.105076  0  4.082365  0  0  0.082446  0.09663  0  4.050567  0
C  C67  1  0.88870716  0.33748499  0.27406350  1  0  0.109856  0  3.805301  0  0  0.100008  0  4.063344  0  0  0.10512  0  4.082537  0  0  0.082431  0.096659  0  4.050765  0
C  C68  1  0.24466168  0.77870425  0.28105581  1  0  -0.219303  0  3.760811  0  0  -0.239103  0  4.022759  0  0  -0.248151  0  4.045345  0  0  -0.111245  -0.233422  0  4.007972  0
C  C69  1  0.25532751  0.72128876  0.78105952  1  0  -0.219167  0  3.760874  0  0  -0.239013  0  4.022848  0  0  -0.248061  0  4.045431  0  0  -0.111212  -0.233332  0  4.00807  0
C  C70  1  0.75532923  0.22129728  0.71893692  1  0  -0.219043  0  3.760871  0  0  -0.238871  0  4.022764  0  0  -0.247918  0  4.045348  0  0  -0.111157  -0.233198  0  4.007983  0
C  C71  1  0.74467768  0.27871868  0.21893934  1  0  -0.219117  0  3.761008  0  0  -0.238932  0  4.022944  0  0  -0.247983  0  4.045536  0  0  -0.111124  -0.233248  0  4.008153  0
C  C72  1  0.08587992  0.73745069  0.23289521  1  0  0.003096  0  3.678298  0  0  -0.058783  0  3.939991  0  0  -0.052307  0  3.956982  0  0  0.015667  -0.062634  0  3.928243  0
C  C73  1  0.41410799  0.76254783  0.73289904  1  0  0.002918  0  3.678317  0  0  -0.058955  0  3.940007  0  0  -0.052481  0  3.956994  0  0  0.015611  -0.0628  0  3.928272  0
C  C74  1  0.91410905  0.26254491  0.76709691  1  0  0.00294  0  3.678378  0  0  -0.058932  0  3.9401  0  0  -0.052457  0  3.957092  0  0  0.015609  -0.062782  0  3.928353  0
C  C75  1  0.58590615  0.23745762  0.26710227  1  0  0.003043  0  3.678625  0  0  -0.058855  0  3.940301  0  0  -0.05238  0  3.957295  0  0  0.015602  -0.062695  0  3.928554  0
C  C76  1  0.01830225  0.75326682  0.08105690  1  0  -0.063946  0  3.669125  0  0  -0.144239  0  3.915775  0  0  -0.141024  0  3.926664  0  0  -0.049093  -0.146405  0  3.90877  0
C  C77  1  0.48169081  0.74673329  0.58106403  1  0  -0.064192  0  3.6693  0  0  -0.144453  0  3.915787  0  0  -0.141247  0  3.926685  0  0  -0.049135  -0.146609  0  3.90877  0
C  C78  1  0.98167074  0.24672188  0.91893583  1  0  -0.064179  0  3.669289  0  0  -0.144296  0  3.91557  0  0  -0.14106  0  3.926424  0  0  -0.049113  -0.146463  0  3.908568  0
C  C79  1  0.51833148  0.25327610  0.41894156  1  0  -0.063902  0  3.66914  0  0  -0.144134  0  3.915443  0  0  -0.140892  0  3.926288  0  0  -0.049064  -0.146373  0  3.908527  0
C  C80  1  0.00970081  0.62244059  0.03901122  1  0  0.065841  0  3.753421  0  0  0.085904  0  3.99353  0  0  0.084979  0  4.018524  0  0  -0.015705  0.086725  0  3.976424  0
C  C81  1  0.49029786  0.87755715  0.53901834  1  0  0.066113  0  3.753113  0  0  0.086169  0  3.993136  0  0  0.085245  0  4.018132  0  0  -0.015604  0.086987  0  3.976035  0
C  C82  1  0.99027637  0.37754414  0.96098580  1  0  0.065982  0  3.753432  0  0  0.086032  0  3.993394  0  0  0.085102  0  4.018386  0  0  -0.01571  0.086855  0  3.976285  0
C  C83  1  0.50973305  0.12244925  0.46098419  1  0  0.06575  0  3.753665  0  0  0.085997  0  3.993424  0  0  0.085063  0  4.018422  0  0  -0.015731  0.086843  0  3.97632  0
C  C84  1  0.84071905  0.52602974  0.03687168  1  0  -0.114556  0  3.75867  0  0  -0.132882  0  4.003399  0  0  -0.135473  0  4.025222  0  0  -0.092761  -0.130537  0  3.988409  0
C  C85  1  0.65929260  0.97396290  0.53686727  1  0  -0.114639  0  3.758722  0  0  -0.132984  0  4.003504  0  0  -0.135577  0  4.02533  0  0  -0.092753  -0.130653  0  3.988513  0
C  C86  1  0.15925990  0.47395201  0.96312718  1  0  -0.114667  0  3.758999  0  0  -0.133035  0  4.003697  0  0  -0.135627  0  4.025523  0  0  -0.092833  -0.130683  0  3.988719  0
C  C87  1  0.34074719  0.02604546  0.46313343  1  0  -0.114655  0  3.758828  0  0  -0.133103  0  4.003484  0  0  -0.135693  0  4.02531  0  0  -0.092861  -0.130743  0  3.988498  0
C  C88  1  0.16971669  0.59532836  0.00166346  1  0  -0.109852  0  3.742495  0  0  -0.127048  0  3.986245  0  0  -0.129954  0  4.007358  0  0  -0.095718  -0.125457  0  3.972147  0
C  C89  1  0.33028710  0.90467002  0.50167264  1  0  -0.11004  0  3.742478  0  0  -0.127196  0  3.986259  0  0  -0.130103  0  4.007372  0  0  -0.095796  -0.125604  0  3.972153  0
C  C90  1  0.83026161  0.40465141  0.99833540  1  0  -0.109767  0  3.742481  0  0  -0.12695  0  3.986177  0  0  -0.129857  0  4.007298  0  0  -0.09571  -0.125358  0  3.972076  0
C  C91  1  0.66974172  0.09533836  0.49833172  1  0  -0.109547  0  3.742623  0  0  -0.126843  0  3.986261  0  0  -0.129751  0  4.007384  0  0  -0.095654  -0.125249  0  3.972161  0
I  I92  1  0.34907138  0.15185139  0.05403653  1  0  -0.438769  0  1.440605  0  0  -0.387627  0  1.860509  0  0  -0.40573  0  1.823355  0  0  -0.210475  -0.373614  0  1.88438  0
I  I93  1  0.15094047  0.34816319  0.55404867  1  0  -0.43874  0  1.440676  0  0  -0.387585  0  1.860579  0  0  -0.405689  0  1.82342  0  0  -0.210454  -0.373572  0  1.884456  0
I  I94  1  0.65091881  0.84815212  0.94595314  1  0  -0.438783  0  1.440695  0  0  -0.387651  0  1.860608  0  0  -0.405751  0  1.823444  0  0  -0.210468  -0.37364  0  1.884491  0
I  I95  1  0.84906858  0.65183929  0.44595386  1  0  -0.438786  0  1.440644  0  0  -0.387619  0  1.860525  0  0  -0.405729  0  1.82337  0  0  -0.210479  -0.373611  0  1.884403  0
N  N96  1  0.67802311  0.95445397  0.16823445  1  0  -0.308181  0  3.310174  0  0  -0.241278  0  3.586115  0  0  -0.253298  0  3.594303  0  0  -0.35182  -0.234044  0  3.581053  0
N  N97  1  0.82196958  0.54554384  0.66823699  1  0  -0.308193  0  3.31046  0  0  -0.241332  0  3.586378  0  0  -0.253376  0  3.5946  0  0  -0.351811  -0.234093  0  3.581309  0
N  N98  1  0.32196708  0.04554954  0.83176195  1  0  -0.308163  0  3.310321  0  0  -0.241214  0  3.586241  0  0  -0.253228  0  3.594423  0  0  -0.35179  -0.233977  0  3.581174  0
N  N99  1  0.17802801  0.45444876  0.33177228  1  0  -0.308268  0  3.310306  0  0  -0.241417  0  3.586317  0  0  -0.253443  0  3.594508  0  0  -0.351882  -0.234182  0  3.581255  0
N  N100  1  0.32001960  0.83178492  0.14867621  1  0  -0.246357  0  3.170332  0  0  -0.218536  0  3.4621  0  0  -0.226321  0  3.470484  0  0  -0.264725  -0.213966  0  3.456577  0
N  N101  1  0.17997286  0.66821777  0.64867753  1  0  -0.246108  0  3.170269  0  0  -0.2183  0  3.462041  0  0  -0.226094  0  3.470436  0  0  -0.264642  -0.213721  0  3.456512  0
N  N102  1  0.67997204  0.16821462  0.85131897  1  0  -0.24598  0  3.170316  0  0  -0.218215  0  3.462114  0  0  -0.226005  0  3.470509  0  0  -0.264612  -0.213642  0  3.456581  0
N  N103  1  0.82003475  0.33178867  0.35132316  1  0  -0.246057  0  3.17025  0  0  -0.218354  0  3.462146  0  0  -0.226133  0  3.470526  0  0  -0.264691  -0.213777  0  3.456617  0
N  N104  1  0.13622124  0.77198039  0.15422006  1  0  0.078049  0  3.561208  0  0  0.198384  0  3.737966  0  0  0.189643  0  3.762861  0  0  -0.136571  0.20424  0  3.721056  0
N  N105  1  0.36376917  0.72801643  0.65422700  1  0  0.077998  0  3.561318  0  0  0.198331  0  3.738052  0  0  0.189593  0  3.762948  0  0  -0.136616  0.204188  0  3.721136  0
N  N106  1  0.86377159  0.22801025  0.84577023  1  0  0.077896  0  3.561365  0  0  0.198202  0  3.738066  0  0  0.189456  0  3.762958  0  0  -0.136659  0.204059  0  3.721159  0
N  N107  1  0.63623657  0.27198012  0.34577492  1  0  0.077746  0  3.561789  0  0  0.198168  0  3.738428  0  0  0.18942  0  3.76332  0  0  -0.13664  0.20405  0  3.721525  0
