# generated using pymatgen
data_ZnH15C16N7O4
_symmetry_space_group_name_H-M   'P 1'
_cell_length_a   8.89202201
_cell_length_b   14.55120435
_cell_length_c   14.58383169
_cell_angle_alpha   89.99990082
_cell_angle_beta   99.17074011
_cell_angle_gamma   90.00026454
_symmetry_Int_Tables_number   1
_chemical_formula_structural   ZnH15C16N7O4
_chemical_formula_sum   'Zn4 H60 C64 N28 O16'
_cell_volume   1862.87658056
_cell_formula_units_Z   4
loop_
 _symmetry_equiv_pos_site_id
 _symmetry_equiv_pos_as_xyz
  1  'x, y, z'
loop_
 _atom_site_type_symbol
 _atom_site_label
 _atom_site_symmetry_multiplicity
 _atom_site_fract_x
 _atom_site_fract_y
 _atom_site_fract_z
 _atom_site_occupancy
 _atom_site_pbe_bader_charge
 _atom_site_pbe_bader_spin_density
 _atom_site_pbe_cm5_charge
 _atom_site_pbe_ddec_charge
 _atom_site_pbe_ddec_spin_density
 _atom_site_pbe_ddec_sum_bond_order
 _atom_site_pbe_magmom
Zn  Zn0  1  0.21869972  0.34818122  0.19843048  1  1.26008  0  0.706045  0.790124  0  2.382791  0
Zn  Zn1  1  0.28129439  0.84817363  0.30157038  1  1.260062  0  0.706006  0.789979  0  2.383006  0
Zn  Zn2  1  0.78129820  0.65182108  0.80156786  1  1.260046  0  0.706042  0.790107  0  2.382895  0
Zn  Zn3  1  0.71870939  0.15182729  0.69842960  1  1.260035  0  0.706038  0.790013  0  2.382993  0
H  H4  1  0.46978199  0.28736593  0.97705522  1  0.116679  0  0.100276  0.103098  0  1.026443  0
H  H5  1  0.03021238  0.78735568  0.52295432  1  0.116597  0  0.100245  0.103127  0  1.026325  0
H  H6  1  0.53022851  0.71263568  0.02294438  1  0.116504  0  0.100293  0.103184  0  1.02652  0
H  H7  1  0.96979251  0.21264593  0.47706154  1  0.116495  0  0.100265  0.103024  0  1.026498  0
H  H8  1  0.87738102  0.38206364  0.88419374  1  0.118717  0  0.104196  0.104748  0  1.047184  0
H  H9  1  0.62261748  0.88206758  0.61580341  1  0.118383  0  0.104223  0.104723  0  1.047241  0
H  H10  1  0.12264066  0.61793110  0.11581324  1  0.119069  0  0.104175  0.104589  0  1.047137  0
H  H11  1  0.37736773  0.11793197  0.38418472  1  0.118804  0  0.104208  0.104679  0  1.047237  0
H  H12  1  0.74484797  0.49578587  0.13234209  1  0.100056  0  0.10569  0.109642  0  1.011123  0
H  H13  1  0.75517009  0.99577809  0.36765536  1  0.099707  0  0.105678  0.109712  0  1.011071  0
H  H14  1  0.25517145  0.50421025  0.86766480  1  0.099561  0  0.105722  0.109736  0  1.011014  0
H  H15  1  0.24483905  0.00420978  0.63233454  1  0.099876  0  0.105714  0.109697  0  1.01107  0
H  H16  1  0.21878294  0.65892427  0.35744763  1  0.154838  0  0.138574  0.106417  0  1.025346  0
H  H17  1  0.28119289  0.15891689  0.14254855  1  0.154526  0  0.138527  0.106326  0  1.025425  0
H  H18  1  0.78121439  0.34108353  0.64254655  1  0.154808  0  0.138572  0.106481  0  1.025333  0
H  H19  1  0.71880221  0.84108884  0.85745379  1  0.154721  0  0.138581  0.10643  0  1.025355  0
H  H20  1  0.16775637  0.26355851  0.98971904  1  0.170268  0  0.15278  0.13306  0  0.964473  0
H  H21  1  0.33224310  0.76356085  0.51028019  1  0.170322  0  0.152767  0.13306  0  0.964465  0
H  H22  1  0.83222359  0.73644722  0.01027986  1  0.170151  0  0.152789  0.133055  0  0.964522  0
H  H23  1  0.66777752  0.23645245  0.48971918  1  0.170153  0  0.152766  0.133028  0  0.96443  0
H  H24  1  0.93392264  0.43071635  0.27941187  1  0.19939  0  0.153822  0.139112  0  0.975712  0
H  H25  1  0.56606068  0.93071405  0.22059163  1  0.199541  0  0.153891  0.139191  0  0.975703  0
H  H26  1  0.06609149  0.56927839  0.72059752  1  0.199779  0  0.153837  0.139178  0  0.97562  0
H  H27  1  0.43393049  0.06928550  0.77939882  1  0.199543  0  0.153867  0.13915  0  0.97565  0
H  H28  1  0.09834953  0.58652426  0.52532541  1  0.070862  0  0.093752  0.092393  0  0.983592  0
H  H29  1  0.40164570  0.08652613  0.97467195  1  0.070796  0  0.093738  0.092354  0  0.983555  0
H  H30  1  0.90166645  0.41347598  0.47467306  1  0.071003  0  0.093752  0.092333  0  0.983683  0
H  H31  1  0.59832744  0.91347686  0.02532664  1  0.071125  0  0.093751  0.092383  0  0.983671  0
H  H32  1  0.90680094  0.57678097  0.53881954  1  0.041464  0  0.097538  0.09884  0  1.011404  0
H  H33  1  0.59320140  0.07678498  0.96118591  1  0.041611  0  0.097562  0.098825  0  1.011459  0
H  H34  1  0.09321951  0.42321996  0.46118670  1  0.041617  0  0.097535  0.098831  0  1.01137  0
H  H35  1  0.40676820  0.92321869  0.03880357  1  0.041464  0  0.097516  0.098828  0  1.011337  0
H  H36  1  0.82148207  0.56184087  0.37076118  1  0.065318  0  0.121281  0.108266  0  0.974323  0
H  H37  1  0.67850134  0.06183959  0.12924435  1  0.065517  0  0.121296  0.108297  0  0.974285  0
H  H38  1  0.17852713  0.43815937  0.62924524  1  0.065225  0  0.121274  0.108231  0  0.974301  0
H  H39  1  0.32148159  0.93816546  0.87074367  1  0.065237  0  0.121321  0.108233  0  0.974287  0
H  H40  1  0.93090417  0.66270947  0.39723300  1  0.079062  0  0.118088  0.1077  0  0.976913  0
H  H41  1  0.56908139  0.16270687  0.10277290  1  0.078573  0  0.118149  0.107777  0  0.976737  0
H  H42  1  0.06910124  0.33729008  0.60277050  1  0.079051  0  0.118111  0.107792  0  0.976796  0
H  H43  1  0.43090563  0.83729611  0.89722013  1  0.078598  0  0.118134  0.10778  0  0.976786  0
H  H44  1  0.87328535  0.25702194  0.18818196  1  0.181298  0  0.140152  0.12066  0  0.98661  0
H  H45  1  0.62671164  0.75702278  0.31181847  1  0.180859  0  0.140181  0.12069  0  0.986641  0
H  H46  1  0.12671289  0.74296318  0.81182672  1  0.180845  0  0.140172  0.120662  0  0.98651  0
H  H47  1  0.37329724  0.24297265  0.68817762  1  0.180929  0  0.140169  0.12071  0  0.986557  0
H  H48  1  0.00990007  0.14269071  0.87051888  1  0.113229  0  0.117997  0.116801  0  0.981127  0
H  H49  1  0.49010081  0.64269608  0.62948270  1  0.11318  0  0.118032  0.116799  0  0.981131  0
H  H50  1  0.99008990  0.85731571  0.12947909  1  0.113107  0  0.118008  0.116805  0  0.981083  0
H  H51  1  0.50989977  0.35732408  0.37051851  1  0.112604  0  0.118046  0.116867  0  0.981026  0
H  H52  1  0.83780964  0.10347623  0.90235903  1  0.068891  0  0.11438  0.096548  0  1.007691  0
H  H53  1  0.66218571  0.60347637  0.59764292  1  0.068952  0  0.114387  0.096553  0  1.007655  0
H  H54  1  0.16217654  0.89652745  0.09763602  1  0.069006  0  0.114341  0.096588  0  1.007681  0
H  H55  1  0.33781481  0.39652936  0.40236586  1  0.068877  0  0.114406  0.096676  0  1.007637  0
H  H56  1  0.03001540  0.98005973  0.90028327  1  0.0683  0  0.099104  0.104711  0  1.007029  0
H  H57  1  0.46997048  0.48006641  0.59971670  1  0.068289  0  0.099141  0.104742  0  1.006987  0
H  H58  1  0.96996926  0.01994326  0.09970896  1  0.068359  0  0.099143  0.104695  0  1.00706  0
H  H59  1  0.53001651  0.51994964  0.40029215  1  0.068318  0  0.099143  0.104643  0  1.007066  0
H  H60  1  0.15772574  0.03634846  0.98731551  1  0.037258  0  0.08597  0.075022  0  1.016426  0
H  H61  1  0.34226527  0.53635697  0.51268737  1  0.037593  0  0.085968  0.075033  0  1.016219  0
H  H62  1  0.84226242  0.96365316  0.01267756  1  0.037062  0  0.085976  0.074987  0  1.016379  0
H  H63  1  0.65772740  0.46366044  0.48732173  1  0.037257  0  0.085953  0.074968  0  1.016465  0
C  C64  1  0.56938473  0.33185647  0.98694171  1  -0.019448  0  -0.074509  -0.095863  0  3.917102  0
C  C65  1  0.93061354  0.83185214  0.51306528  1  -0.023155  0  -0.074547  -0.095943  0  3.917296  0
C  C66  1  0.43062918  0.66814652  0.01305804  1  -0.022653  0  -0.074581  -0.095944  0  3.917349  0
C  C67  1  0.06938801  0.16815016  0.48694286  1  -0.022767  0  -0.074449  -0.095739  0  3.917266  0
C  C68  1  0.50022104  0.38515413  0.13965258  1  1.596392  0  0.198856  0.57758  0  4.2176  0
C  C69  1  0.99977905  0.88513261  0.36034506  1  1.596651  0  0.199008  0.57826  0  4.217173  0
C  C70  1  0.49979231  0.61484749  0.86035127  1  1.596331  0  0.198782  0.577698  0  4.217387  0
C  C71  1  0.00021763  0.11485182  0.63965253  1  1.596348  0  0.19889  0.577834  0  4.217609  0
C  C72  1  0.67020132  0.32807036  0.92224089  1  -0.056342  0  -0.01706  -0.020401  0  3.970779  0
C  C73  1  0.82979652  0.82806636  0.57776329  1  -0.056561  0  -0.017079  -0.020462  0  3.97088  0
C  C74  1  0.32981505  0.67193194  0.07776035  1  -0.056935  0  -0.017034  -0.020399  0  3.9711  0
C  C75  1  0.17019518  0.17193525  0.42223889  1  -0.056963  0  -0.017173  -0.020546  0  3.971078  0
C  C76  1  0.59767713  0.38970691  0.06428842  1  -0.038431  0  -0.021506  -0.034871  0  3.985054  0
C  C77  1  0.90232996  0.88969522  0.43571854  1  -0.034494  0  -0.02137  -0.034935  0  3.985037  0
C  C78  1  0.40233963  0.61029195  0.93571560  1  -0.034312  0  -0.021481  -0.03504  0  3.985088  0
C  C79  1  0.09767205  0.11029746  0.56428480  1  -0.034215  0  -0.021506  -0.035043  0  3.985126  0
C  C80  1  0.64152985  0.25936997  0.84429711  1  1.546886  0  0.197306  0.567725  0  4.202992  0
C  C81  1  0.85844414  0.75937057  0.65570258  1  1.546098  0  0.19752  0.568252  0  4.20273  0
C  C82  1  0.35848623  0.74063302  0.15570206  1  1.546591  0  0.197309  0.567601  0  4.203289  0
C  C83  1  0.14153364  0.24063104  0.34429690  1  1.546143  0  0.197322  0.567836  0  4.203038  0
C  C84  1  0.79738154  0.38514064  0.93314546  1  0.01623  0  -0.074607  -0.142428  0  3.911216  0
C  C85  1  0.70261389  0.88514127  0.56685364  1  0.016609  0  -0.07463  -0.142417  0  3.910997  0
C  C86  1  0.20263389  0.61486166  0.06685711  1  0.015868  0  -0.074583  -0.142155  0  3.911132  0
C  C87  1  0.29737323  0.11485690  0.43314007  1  0.016015  0  -0.074632  -0.142273  0  3.911148  0
C  C88  1  0.82295289  0.44677636  0.00817423  1  0.364539  0  0.079836  0.156595  0  4.056169  0
C  C89  1  0.67705831  0.94677647  0.49182588  1  0.364442  0  0.079734  0.156579  0  4.056184  0
C  C90  1  0.17706900  0.55321976  0.99183414  1  0.364736  0  0.079868  0.156565  0  4.056093  0
C  C91  1  0.32293864  0.05322102  0.50816553  1  0.364625  0  0.079872  0.156537  0  4.056296  0
C  C92  1  0.72323877  0.44883133  0.07349785  1  -0.080802  0  -0.071039  -0.143336  0  3.907936  0
C  C93  1  0.77677500  0.94882425  0.42650446  1  -0.080594  0  -0.070973  -0.143382  0  3.907959  0
C  C94  1  0.27678035  0.55116547  0.92650696  1  -0.080706  0  -0.071108  -0.143359  0  3.907803  0
C  C95  1  0.22322933  0.05116774  0.57349141  1  -0.081025  0  -0.071077  -0.143296  0  3.908023  0
C  C96  1  0.17884561  0.59361366  0.32731256  1  0.983918  0  0.157115  0.088708  0  3.896378  0
C  C97  1  0.32113216  0.09360807  0.17268584  1  0.983458  0  0.156954  0.088686  0  3.896912  0
C  C98  1  0.82115334  0.40639207  0.67268513  1  0.983491  0  0.157107  0.088665  0  3.896708  0
C  C99  1  0.67886151  0.90639835  0.82731437  1  0.983451  0  0.156908  0.088569  0  3.896927  0
C  C100  1  0.07577838  0.24610808  0.02730061  1  0.972348  0  0.167086  0.079856  0  3.884974  0
C  C101  1  0.42422141  0.74610972  0.47269955  1  0.972222  0  0.167129  0.079888  0  3.884932  0
C  C102  1  0.92420764  0.75389216  0.97270131  1  0.972555  0  0.167069  0.079813  0  3.884982  0
C  C103  1  0.57579230  0.25389876  0.52729882  1  0.973041  0  0.167104  0.079944  0  3.884965  0
C  C104  1  0.02886751  0.47821710  0.28592086  1  0.992984  0  0.170497  0.094531  0  3.893446  0
C  C105  1  0.47111670  0.97821588  0.21408078  1  0.992975  0  0.170307  0.094223  0  3.893368  0
C  C106  1  0.97113923  0.52178383  0.71408407  1  0.992525  0  0.17051  0.09448  0  3.893592  0
C  C107  1  0.52887506  0.02178779  0.78591383  1  0.992579  0  0.170397  0.094455  0  3.893248  0
C  C108  1  0.99056727  0.55221086  0.49661031  1  -0.052774  0  -0.163602  -0.177944  0  3.941788  0
C  C109  1  0.50942991  0.05221278  0.00338956  1  -0.052838  0  -0.163589  -0.177765  0  3.941553  0
C  C110  1  0.00944949  0.44778869  0.50339370  1  -0.016011  0  -0.163738  -0.177851  0  3.941837  0
C  C111  1  0.49054670  0.94778952  0.99660161  1  -0.015818  0  -0.163705  -0.177948  0  3.941782  0
C  C112  1  0.93587749  0.58741880  0.39797395  1  0.316097  0  -0.045483  -0.068925  0  3.871409  0
C  C113  1  0.56410572  0.08741688  0.10202837  1  0.316432  0  -0.045534  -0.069033  0  3.871266  0
C  C114  1  0.06412915  0.41258144  0.60203029  1  0.31617  0  -0.045401  -0.068986  0  3.871611  0
C  C115  1  0.43587874  0.91258679  0.89796247  1  0.316446  0  -0.045525  -0.069035  0  3.871495  0
C  C116  1  0.92231496  0.24222842  0.12632714  1  0.960032  0  0.153578  0.147028  0  3.96409  0
C  C117  1  0.57768527  0.74222837  0.37367329  1  0.960481  0  0.15353  0.146933  0  3.964155  0
C  C118  1  0.07767826  0.75776357  0.87367786  1  0.959791  0  0.153527  0.147051  0  3.963866  0
C  C119  1  0.42232834  0.25776981  0.62632438  1  0.959767  0  0.153619  0.146982  0  3.963991  0
C  C120  1  0.95908951  0.11402311  0.92798104  1  0.318621  0  -0.050282  -0.097024  0  3.875046  0
C  C121  1  0.54090680  0.61402740  0.57201898  1  0.318613  0  -0.050331  -0.097052  0  3.875016  0
C  C122  1  0.04089809  0.88598331  0.07201614  1  0.318179  0  -0.05026  -0.097041  0  3.874836  0
C  C123  1  0.45909284  0.38598796  0.42798356  1  0.318872  0  -0.050374  -0.097332  0  3.875195  0
C  C124  1  0.03590551  0.02384297  0.96209350  1  -0.049431  0  -0.166405  -0.172788  0  3.941741  0
C  C125  1  0.46408536  0.52384804  0.53790926  1  -0.022342  0  -0.166446  -0.172763  0  3.941414  0
C  C126  1  0.96407944  0.97615796  0.03790081  1  -0.021366  0  -0.166476  -0.172661  0  3.94162  0
C  C127  1  0.53591165  0.47616320  0.46209867  1  -0.048975  0  -0.166452  -0.17258  0  3.941782  0
N  N128  1  0.25300605  0.53965152  0.27751448  1  -0.679719  0  -0.213462  -0.166262  0  3.158073  0
N  N129  1  0.24697103  0.03964444  0.22248269  1  -0.67922  0  -0.213358  -0.166292  0  3.158517  0
N  N130  1  0.74699375  0.46035284  0.72248119  1  -0.679127  0  -0.213498  -0.166341  0  3.158584  0
N  N131  1  0.75302151  0.96035854  0.77751747  1  -0.679248  0  -0.213372  -0.166312  0  3.158677  0
N  N132  1  0.05081389  0.28474765  0.10705155  1  -1.225749  0  -0.349628  -0.321596  0  3.547923  0
N  N133  1  0.44918643  0.78474828  0.39294969  1  -1.225785  0  -0.349673  -0.321628  0  3.548049  0
N  N134  1  0.94917809  0.71524709  0.89295271  1  -1.225359  0  -0.349677  -0.321628  0  3.547933  0
N  N135  1  0.55082832  0.21525470  0.60704804  1  -1.225738  0  -0.349713  -0.321663  0  3.548091  0
N  N136  1  0.96798013  0.18263830  0.00154601  1  -0.846305  0  -0.129526  0.176319  0  3.723852  0
N  N137  1  0.53201963  0.68264072  0.49845521  1  -0.846187  0  -0.129532  0.176382  0  3.723926  0
N  N138  1  0.03200663  0.81736125  0.99845319  1  -0.846235  0  -0.129563  0.176293  0  3.723967  0
N  N139  1  0.46799067  0.31736639  0.50154300  1  -0.845905  0  -0.129613  0.176252  0  3.724063  0
N  N140  1  0.15702809  0.46632498  0.25175908  1  -0.798408  0  -0.248483  -0.199105  0  3.577881  0
N  N141  1  0.34295343  0.96632165  0.24824026  1  -0.798643  0  -0.248244  -0.198653  0  3.577689  0
N  N142  1  0.84297466  0.53367594  0.74824154  1  -0.798445  0  -0.248413  -0.198915  0  3.578076  0
N  N143  1  0.65704193  0.03368134  0.75175589  1  -0.798321  0  -0.248235  -0.198706  0  3.577524  0
N  N144  1  0.94870369  0.50748204  0.02469143  1  -0.446442  0  -0.152574  -0.139823  0  3.301034  0
N  N145  1  0.55130727  0.00748303  0.47530521  1  -0.446625  0  -0.15242  -0.139703  0  3.300813  0
N  N146  1  0.05131933  0.49250995  0.97531700  1  -0.497117  0  -0.152567  -0.140046  0  3.301153  0
N  N147  1  0.44868909  0.99251377  0.52468204  1  -0.496884  0  -0.152687  -0.140123  0  3.301057  0
N  N148  1  0.03830658  0.55794561  0.33435921  1  -1.252636  0  -0.233903  0.017585  0  3.738795  0
N  N149  1  0.46167326  0.05794320  0.16564032  1  -1.252298  0  -0.233919  0.0175  0  3.739129  0
N  N150  1  0.96169948  0.44205532  0.66564087  1  -1.25278  0  -0.234  0.017443  0  3.739154  0
N  N151  1  0.53831879  0.94206185  0.83435637  1  -1.25237  0  -0.233945  0.017501  0  3.739191  0
N  N152  1  0.86856683  0.17964766  0.06360193  1  -0.662313  0  -0.211088  -0.252672  0  3.126331  0
N  N153  1  0.63143309  0.67964904  0.43640065  1  -0.662412  0  -0.211057  -0.252636  0  3.126427  0
N  N154  1  0.13142609  0.82034707  0.93640099  1  -0.662137  0  -0.211002  -0.252636  0  3.126332  0
N  N155  1  0.36857637  0.32035189  0.56359959  1  -0.662669  0  -0.211028  -0.252594  0  3.126387  0
O  O156  1  0.36926466  0.34373418  0.11509478  1  -1.19099  0  -0.351556  -0.584663  0  2.338838  0
O  O157  1  0.13075272  0.84372107  0.38491949  1  -1.191177  0  -0.351545  -0.584877  0  2.338511  0
O  O158  1  0.63075145  0.65627018  0.88491265  1  -1.191041  0  -0.3515  -0.584694  0  2.338647  0
O  O159  1  0.86925846  0.15627574  0.61508495  1  -1.190984  0  -0.351536  -0.584745  0  2.338641  0
O  O160  1  0.75386374  0.24624639  0.79850771  1  -1.15835  0  -0.334392  -0.570236  0  2.340487  0
O  O161  1  0.74612781  0.74624683  0.70149748  1  -1.158577  0  -0.334473  -0.570334  0  2.340741  0
O  O162  1  0.24614913  0.75375797  0.20149269  1  -1.158168  0  -0.334367  -0.570145  0  2.340496  0
O  O163  1  0.25385746  0.25375959  0.29850716  1  -1.158315  0  -0.334359  -0.570191  0  2.340793  0
O  O164  1  0.51664332  0.21765171  0.82903406  1  -1.18589  0  -0.332899  -0.578465  0  2.145943  0
O  O165  1  0.98333646  0.71764075  0.67096963  1  -1.184899  0  -0.333088  -0.578957  0  2.145465  0
O  O166  1  0.48336841  0.78234715  0.17096629  1  -1.185891  0  -0.332944  -0.578435  0  2.146159  0
O  O167  1  0.01663707  0.28235193  0.32903172  1  -1.185224  0  -0.332976  -0.578643  0  2.145638  0
O  O168  1  0.54719359  0.41680331  0.21831349  1  -1.176458  0  -0.331849  -0.546565  0  2.079804  0
O  O169  1  0.95280271  0.91674623  0.28168704  1  -1.176375  0  -0.331964  -0.546859  0  2.079999  0
O  O170  1  0.45283180  0.58320036  0.78169573  1  -1.176363  0  -0.331775  -0.546551  0  2.079895  0
O  O171  1  0.04717987  0.08321965  0.71830647  1  -1.17626  0  -0.331843  -0.546589  0  2.080076  0
