# generated using pymatgen
data_TbH14(C2O)6
_symmetry_space_group_name_H-M   'P 1'
_cell_length_a   7.52204623
_cell_length_b   9.62828473
_cell_length_c   9.62823846
_cell_angle_alpha   98.42640201
_cell_angle_beta   89.99965105
_cell_angle_gamma   89.99943847
_symmetry_Int_Tables_number   1
_chemical_formula_structural   TbH14(C2O)6
_chemical_formula_sum   'Tb2 H28 C24 O12'
_cell_volume   689.79179718
_cell_formula_units_Z   2
loop_
 _symmetry_equiv_pos_site_id
 _symmetry_equiv_pos_as_xyz
  1  'x, y, z'
loop_
 _atom_site_type_symbol
 _atom_site_label
 _atom_site_symmetry_multiplicity
 _atom_site_fract_x
 _atom_site_fract_y
 _atom_site_fract_z
 _atom_site_occupancy
 _atom_site_hle17_ddec_charge
 _atom_site_hle17_ddec_spin_density
 _atom_site_hle17_ddec_sum_bond_order
 _atom_site_hle17_magmom
 _atom_site_hse06_10hf_ddec_charge
 _atom_site_hse06_10hf_ddec_spin_density
 _atom_site_hse06_10hf_ddec_sum_bond_order
 _atom_site_hse06_10hf_magmom
 _atom_site_hse06_ddec_charge
 _atom_site_hse06_ddec_spin_density
 _atom_site_hse06_ddec_sum_bond_order
 _atom_site_hse06_magmom
 _atom_site_pbe_cm5_charge
 _atom_site_pbe_ddec_charge
 _atom_site_pbe_ddec_spin_density
 _atom_site_pbe_ddec_sum_bond_order
 _atom_site_pbe_magmom
Tb  Tb0  1  0.58070190  0.04532022  0.04531887  1  2.25241  -0.00251  1.675238  -0.002  2.110643  -0.003151  2.137782  -0.003  2.160593  -0.002644  2.093668  -0.002  1.532106  2.07188  -0.003668  2.172834  -0.003
Tb  Tb1  1  0.08070643  0.95468076  0.95468130  1  2.252463  0.002516  1.675218  0.002  2.110722  0.003153  2.137734  0.003  2.160693  0.002646  2.093579  0.002  1.53209  2.07196  0.003668  2.172782  0.003
H  H2  1  0.57500581  0.26575066  0.59254519  1  0.128721  0.000686  0.951532  0.0  0.145921  0.00093  1.007094  0.0  0.14862  0.000907  1.006097  0.0  0.103512  0.144022  0.000911  1.007732  0.0
H  H3  1  0.07500935  0.73424717  0.40744833  1  0.128705  -0.000684  0.951657  0.0  0.145905  -0.000931  1.007212  0.0  0.148603  -0.000908  1.006216  0.0  0.10351  0.144006  -0.000912  1.007846  0.0
H  H4  1  0.07499815  0.40744830  0.73424960  1  0.128772  -0.000685  0.951485  0.0  0.145934  -0.000931  1.007096  0.0  0.148633  -0.000909  1.006098  0.0  0.103505  0.144036  -0.000912  1.007729  0.0
H  H5  1  0.57499175  0.59255061  0.26574823  1  0.128779  0.000685  0.951444  0.0  0.145925  0.000931  1.007078  0.0  0.148625  0.000908  1.006079  0.0  0.103527  0.144026  0.000912  1.007711  0.0
H  H6  1  0.62716904  0.27075694  0.78273158  1  0.129711  9e-05  0.97639  0.0  0.139735  0.000131  1.041876  0.0  0.143  0.000125  1.040534  0.0  0.103441  0.137454  0.000132  1.042721  0.0
H  H7  1  0.12717810  0.72924677  0.21726667  1  0.129731  -8.8e-05  0.976364  0.0  0.139749  -0.00013  1.04185  0.0  0.143015  -0.000125  1.040507  0.0  0.103417  0.137468  -0.000132  1.042693  0.0
H  H8  1  0.12716202  0.21726894  0.72924613  1  0.129704  -9e-05  0.976466  0.0  0.139765  -0.00013  1.041907  0.0  0.143016  -0.000125  1.040583  0.0  0.103444  0.137482  -0.000132  1.042757  0.0
H  H9  1  0.62715720  0.78273479  0.27075420  1  0.129654  7.7e-05  0.976413  0.0  0.139696  0.000131  1.041903  0.0  0.142948  0.000125  1.040579  0.0  0.103409  0.137415  0.000132  1.04275  0.0
H  H10  1  0.70492441  0.08032611  0.42061368  1  0.130991  7.6e-05  0.971601  0.0  0.14908  0.0001  1.033858  0.0  0.151337  9.8e-05  1.032908  0.0  0.098766  0.147429  9.4e-05  1.03448  0.0
H  H11  1  0.20492031  0.91966856  0.57938813  1  0.130932  -5.7e-05  0.971591  0.0  0.149052  -0.0001  1.03381  0.0  0.151308  -9.9e-05  1.032861  0.0  0.098757  0.147405  -9.4e-05  1.034432  0.0
H  H12  1  0.20491579  0.57938723  0.91967041  1  0.130905  -5.8e-05  0.971605  0.0  0.149094  -0.0001  1.033752  0.0  0.151349  -9.9e-05  1.032804  0.0  0.098759  0.147433  -9.4e-05  1.034384  0.0
H  H13  1  0.70491829  0.42061582  0.08032841  1  0.130977  5.6e-05  0.971606  0.0  0.14908  0.0001  1.033838  0.0  0.151337  9.9e-05  1.032888  0.0  0.098766  0.147424  9.4e-05  1.034463  0.0
H  H14  1  0.92593744  0.04358259  0.47202681  1  0.112298  0.000207  0.952918  0.0  0.137374  0.000207  1.010805  0.0  0.136953  0.000208  1.013444  0.0  0.094791  0.137458  0.000214  1.009138  0.0
H  H15  1  0.42593860  0.95641651  0.52797869  1  0.112344  -0.00021  0.952863  0.0  0.137421  -0.000207  1.010727  0.0  0.137001  -0.000208  1.013367  0.0  0.094812  0.137509  -0.000214  1.009055  0.0
H  H16  1  0.42592897  0.52796557  0.95641108  1  0.112296  -0.000185  0.952823  0.0  0.137292  -0.000207  1.010834  0.0  0.13687  -0.000209  1.013475  0.0  0.09474  0.137373  -0.000214  1.009166  0.0
H  H17  1  0.92592978  0.47203032  0.04358463  1  0.112344  0.000192  0.952822  0.0  0.137345  0.000207  1.010796  0.0  0.136923  0.000209  1.013436  0.0  0.09477  0.137427  0.000214  1.009128  0.0
H  H18  1  0.75618156  0.92205785  0.48755522  1  0.101293  -0.000912  0.951032  0.0  0.125006  -0.000816  1.012772  0.0  0.125432  -0.000831  1.012986  0.0  0.091274  0.124596  -0.000783  1.012667  0.0
H  H19  1  0.25617516  0.07793951  0.51244360  1  0.101322  0.000923  0.950979  0.0  0.125035  0.000816  1.01271  0.0  0.125466  0.00083  1.012918  0.0  0.091281  0.124623  0.000783  1.012611  0.0
H  H20  1  0.25617414  0.51244486  0.07794203  1  0.101256  0.000926  0.951003  0.0  0.124968  0.000816  1.012737  0.0  0.125397  0.00083  1.012948  0.0  0.091263  0.124557  0.000783  1.012631  0.0
H  H21  1  0.75617726  0.48755777  0.92205960  1  0.101298  -0.000927  0.951076  0.0  0.125025  -0.000816  1.012773  0.0  0.12545  -0.00083  1.012989  0.0  0.091287  0.124612  -0.000782  1.012671  0.0
H  H22  1  0.91474222  0.48357859  0.48357643  1  0.11303  0.005181  0.987253  0.002  0.124917  0.005106  1.054559  0.001  0.127953  0.004927  1.052815  0.001  0.09112  0.122771  0.005258  1.055665  0.001
H  H23  1  0.41476490  0.51642686  0.51642379  1  0.113138  -0.005193  0.987435  -0.002  0.125018  -0.005101  1.054728  -0.001  0.128059  -0.004925  1.052988  -0.001  0.091199  0.122873  -0.005254  1.055826  -0.001
H  H24  1  0.73696851  0.37968223  0.37967620  1  0.133436  0.001017  0.957397  -0.001  0.145907  -0.000759  1.01732  -0.003  0.150043  -0.000529  1.014493  -0.003  0.103151  0.142971  -0.001011  1.019222  -0.003
H  H25  1  0.23699308  0.62032579  0.62032212  1  0.133284  -0.001021  0.957839  0.001  0.145883  0.000758  1.017592  0.003  0.150018  0.000529  1.014766  0.003  0.10311  0.142944  0.001009  1.019512  0.003
H  H26  1  0.26856701  0.39780820  0.27067970  1  0.103123  0.030358  0.963558  0.029  0.121929  0.001243  1.037733  0.006  0.123322  0.003067  1.035334  0.007  0.091999  0.121036  8e-06  1.039507  0.005
H  H27  1  0.76858748  0.60219751  0.72932853  1  0.103074  -0.030353  0.963598  -0.029  0.121883  -0.001242  1.037761  -0.006  0.123272  -0.003065  1.03537  -0.007  0.091986  0.120993  -7e-06  1.039532  -0.005
H  H28  1  0.76859250  0.72933367  0.60220948  1  0.103059  -0.030353  0.963662  -0.029  0.121903  -0.001244  1.037776  -0.006  0.123293  -0.003066  1.035384  -0.007  0.092011  0.12101  -9e-06  1.03955  -0.005
H  H29  1  0.26856598  0.27065307  0.39778571  1  0.103033  0.030338  0.963619  0.029  0.121879  0.001233  1.037734  0.006  0.123265  0.003056  1.035348  0.007  0.092014  0.120993  -1e-06  1.039501  0.005
C  C30  1  0.64364667  0.22013073  0.67470828  1  -0.233608  9.4e-05  3.514825  0.0  -0.292112  0.000907  3.742253  0.0  -0.29341  0.000762  3.757845  0.0  -0.148345  -0.290888  0.000985  3.731297  0.0
C  C31  1  0.14365028  0.77986445  0.32529077  1  -0.233562  -9.1e-05  3.514724  0.0  -0.292047  -0.000909  3.74214  0.0  -0.293346  -0.000755  3.757733  0.0  -0.14827  -0.290818  -0.000985  3.731177  0.0
C  C32  1  0.14362874  0.32528972  0.77987241  1  -0.233558  -8.3e-05  3.514585  0.0  -0.29208  -0.000912  3.742026  0.0  -0.293359  -0.000753  3.757615  0.0  -0.1483  -0.290857  -0.000986  3.731069  0.0
C  C33  1  0.64363497  0.67470967  0.22012931  1  -0.233483  0.000101  3.514562  0.0  -0.291968  0.000909  3.742003  0.0  -0.293256  0.000767  3.75761  0.0  -0.148257  -0.290742  0.000985  3.731042  0.0
C  C34  1  0.78446126  0.03518800  0.49774351  1  -0.322815  -0.000353  3.727182  0.0  -0.407864  -0.00014  3.960382  0.0  -0.409304  -0.000153  3.97276  0.0  -0.242821  -0.406573  -9.3e-05  3.952026  0.0
C  C35  1  0.28445853  0.96480809  0.50225811  1  -0.322858  0.000302  3.727022  0.0  -0.407911  0.000139  3.960241  0.0  -0.409358  0.000156  3.972617  0.0  -0.242807  -0.406625  9.4e-05  3.951891  0.0
C  C36  1  0.28445164  0.50225513  0.96480912  1  -0.322589  0.000258  3.727001  0.0  -0.40764  0.000138  3.960153  0.0  -0.409082  0.000158  3.972533  0.0  -0.242693  -0.40634  9.3e-05  3.951789  0.0
C  C37  1  0.78445486  0.49774514  0.03518996  1  -0.322799  -0.00027  3.727086  0.0  -0.407802  -0.000139  3.960284  0.0  -0.40924  -0.000157  3.972662  0.0  -0.242796  -0.406506  -9.3e-05  3.951924  0.0
C  C38  1  0.74775082  0.10649160  0.64371213  1  0.040894  0.000389  3.755354  0.0  0.074282  0.000471  3.995032  0.0  0.066638  0.000433  4.019553  0.0  -0.012421  0.079083  0.000542  3.978565  0.0
C  C39  1  0.24775809  0.89350898  0.35628717  1  0.040873  -0.000381  3.755225  0.0  0.074255  -0.00047  3.994921  0.0  0.066606  -0.00044  4.019439  0.0  -0.01247  0.079058  -0.000542  3.978462  0.0
C  C40  1  0.24775004  0.35628670  0.89350666  1  0.040619  -0.000379  3.755309  0.0  0.074042  -0.000469  3.995  0.0  0.066393  -0.000442  4.019513  0.0  -0.012509  0.078853  -0.000543  3.978531  0.0
C  C41  1  0.74774424  0.64371493  0.10649175  1  0.040697  0.0004  3.755237  0.0  0.074092  0.000471  3.994888  0.0  0.066444  0.000428  4.0194  0.0  -0.012512  0.078902  0.000542  3.978417  0.0
C  C42  1  0.84200700  0.04979449  0.75879775  1  0.658156  0.000466  3.889672  0.0  0.612429  0.00088  4.177267  0.0  0.647156  0.000748  4.167806  0.0  0.212255  0.589089  0.000731  4.18258  0.0
C  C43  1  0.34201046  0.95020530  0.24120306  1  0.658086  -0.000494  3.889736  0.0  0.612346  -0.000878  4.177352  0.0  0.647084  -0.00075  4.167865  0.0  0.212185  0.588986  -0.000731  4.182693  0.0
C  C44  1  0.34199883  0.24119998  0.95020005  1  0.658259  -0.000493  3.889705  0.0  0.612485  -0.000877  4.177364  0.0  0.647223  -0.000753  4.167876  0.0  0.212196  0.589118  -0.000732  4.182715  0.0
C  C45  1  0.84200267  0.75880084  0.04979883  1  0.658191  0.000453  3.889597  0.0  0.612489  0.000878  4.177139  0.0  0.64723  0.000753  4.167647  0.0  0.212255  0.589121  0.000731  4.182482  0.0
C  C46  1  0.87796850  0.39982516  0.39981679  1  -0.247422  -0.045387  3.570216  -0.032  -0.300535  -0.018203  3.798824  -0.016  -0.302948  -0.019218  3.81457  -0.017  -0.15819  -0.298437  -0.016567  3.787839  -0.015
C  C47  1  0.37798683  0.60017952  0.60017727  1  -0.24723  0.045434  3.570623  0.032  -0.300512  0.018212  3.799021  0.016  -0.302928  0.019217  3.814779  0.017  -0.158179  -0.298421  0.016573  3.78803  0.015
C  C48  1  0.19278321  0.33962877  0.33963178  1  -0.195452  -1.026334  3.108281  -0.61  -0.252977  -0.894888  3.376582  -0.478  -0.250408  -0.909696  3.376287  -0.485  -0.150496  -0.256067  -0.882955  3.377784  -0.472
C  C49  1  0.69280349  0.66036916  0.66037054  1  -0.195417  1.026293  3.108737  0.61  -0.253008  0.894859  3.376937  0.478  -0.250435  0.909666  3.376649  0.485  -0.150559  -0.256101  0.882925  3.378148  0.472
C  C50  1  0.00003530  0.32191885  0.32192083  1  0.012311  0.057227  3.788867  0.063  0.041972  0.008133  4.031191  0.025  0.034461  0.011996  4.0541  0.028  -0.023821  0.046845  0.004545  4.01637  0.022
C  C51  1  0.50006054  0.67807967  0.67807938  1  0.011952  -0.057197  3.789092  -0.063  0.041901  -0.008114  4.031167  -0.025  0.034377  -0.011965  4.054099  -0.028  -0.023813  0.046778  -0.004526  4.016345  -0.022
C  C52  1  0.93784112  0.20766454  0.20766790  1  0.712388  -0.03412  3.833188  -0.029  0.671654  -0.032096  4.114171  -0.026  0.706702  -0.031822  4.104322  -0.026  0.239064  0.648168  -0.032226  4.118622  -0.026
C  C53  1  0.43786089  0.79233338  0.79233219  1  0.712733  0.034127  3.833014  0.029  0.671805  0.032105  4.114179  0.026  0.706856  0.031818  4.104331  0.026  0.23911  0.648315  0.032228  4.11863  0.026
O  O54  1  0.80717660  0.09338476  0.89010938  1  -0.840579  0.000297  2.113714  0.0  -0.781374  0.00057  2.374705  0.001  -0.807698  0.000449  2.364386  0.0  -0.439882  -0.762104  0.000326  2.37996  0.0
O  O55  1  0.30717631  0.90661952  0.10989120  1  -0.840603  -0.000288  2.113679  0.0  -0.78138  -0.000569  2.374674  -0.001  -0.807705  -0.000451  2.36434  0.0  -0.439843  -0.76211  -0.000325  2.379952  0.0
O  O56  1  0.30717551  0.10989076  0.90661575  1  -0.840588  -0.00029  2.113686  0.0  -0.781355  -0.00057  2.37471  -0.001  -0.807679  -0.00045  2.364374  0.0  -0.439808  -0.762096  -0.000325  2.380016  0.0
O  O57  1  0.80716941  0.89011249  0.09338675  1  -0.840584  0.000302  2.11364  0.0  -0.781397  0.000571  2.374645  0.001  -0.807721  0.000447  2.364313  0.0  -0.43985  -0.762154  0.000326  2.379992  0.0
O  O58  1  0.96456784  0.95964162  0.72802238  1  -0.665975  0.001378  1.993798  0.0  -0.615607  0.002694  2.238964  0.001  -0.639247  0.002648  2.229095  0.001  -0.36917  -0.599131  0.003232  2.245223  0.001
O  O59  1  0.46456377  0.04035605  0.27197547  1  -0.665923  -0.001368  1.99389  0.0  -0.615566  -0.002694  2.23907  -0.001  -0.639207  -0.002645  2.229201  -0.001  -0.369195  -0.599078  -0.003231  2.245332  -0.001
O  O60  1  0.46456057  0.27197638  0.04035137  1  -0.666009  -0.001372  1.993809  0.0  -0.615645  -0.002696  2.23899  -0.001  -0.639289  -0.002647  2.229124  -0.001  -0.369221  -0.599155  -0.003234  2.245255  -0.001
O  O61  1  0.96456572  0.72802444  0.95964795  1  -0.666035  0.001382  1.993882  0.0  -0.615658  0.002694  2.239004  0.001  -0.639308  0.002647  2.229133  0.001  -0.369235  -0.599166  0.003233  2.24527  0.001
O  O62  1  0.77257511  0.18833366  0.18833285  1  -0.715676  -0.003101  2.063592  -0.003  -0.662011  -0.010846  2.318096  -0.01  -0.688225  -0.008202  2.307125  -0.008  -0.393954  -0.642817  -0.013525  2.323644  -0.012
O  O63  1  0.27261310  0.81167200  0.81167224  1  -0.715632  0.003098  2.063727  0.003  -0.66207  0.010845  2.318544  0.01  -0.688277  0.008205  2.307549  0.008  -0.39388  -0.642876  0.013529  2.324093  0.012
O  O64  1  0.05988791  0.13692353  0.13692336  1  -0.749337  -0.007914  2.062612  -0.001  -0.697096  -0.01604  2.318946  -0.008  -0.723705  -0.014812  2.309355  -0.007  -0.405754  -0.678158  -0.017358  2.323949  -0.009
O  O65  1  0.55991473  0.86307868  0.86307812  1  -0.749505  0.007912  2.062518  0.001  -0.697225  0.016041  2.318995  0.008  -0.723831  0.01482  2.3094  0.007  -0.405832  -0.678282  0.017364  2.32399  0.009
