# generated using pymatgen
data_ZnP2H24C26(IO)2
_symmetry_space_group_name_H-M   'P 1'
_cell_length_a   8.77279169
_cell_length_b   11.56137430
_cell_length_c   15.18240000
_cell_angle_alpha   68.94476147
_cell_angle_beta   88.52883731
_cell_angle_gamma   73.70535679
_symmetry_Int_Tables_number   1
_chemical_formula_structural   ZnP2H24C26(IO)2
_chemical_formula_sum   'Zn2 P4 H48 C52 I4 O4'
_cell_volume   1374.48677636
_cell_formula_units_Z   2
loop_
 _symmetry_equiv_pos_site_id
 _symmetry_equiv_pos_as_xyz
  1  'x, y, z'
loop_
 _atom_site_type_symbol
 _atom_site_label
 _atom_site_symmetry_multiplicity
 _atom_site_fract_x
 _atom_site_fract_y
 _atom_site_fract_z
 _atom_site_occupancy
 _atom_site_hle17_bader_spin_density
 _atom_site_hle17_ddec_charge
 _atom_site_hle17_ddec_spin_density
 _atom_site_hle17_ddec_sum_bond_order
 _atom_site_hle17_magmom
 _atom_site_hse06_10hf_bader_spin_density
 _atom_site_hse06_10hf_ddec_charge
 _atom_site_hse06_10hf_ddec_spin_density
 _atom_site_hse06_10hf_ddec_sum_bond_order
 _atom_site_hse06_10hf_magmom
 _atom_site_hse06_bader_spin_density
 _atom_site_hse06_ddec_charge
 _atom_site_hse06_ddec_spin_density
 _atom_site_hse06_ddec_sum_bond_order
 _atom_site_hse06_magmom
 _atom_site_pbe_bader_charge
 _atom_site_pbe_bader_spin_density
 _atom_site_pbe_cm5_charge
 _atom_site_pbe_ddec_charge
 _atom_site_pbe_ddec_spin_density
 _atom_site_pbe_ddec_sum_bond_order
 _atom_site_pbe_magmom
Zn  Zn0  1  0.50927196  0.94572311  0.75708072  1  0  0.870727  0  2.124356  0  0  0.727283  0  2.599738  0  0  0.771864  0  2.54634  0  1.018782  0  0.473171  0.696535  0  2.63599  0
Zn  Zn1  1  0.49072344  0.05427691  0.24291730  1  0  0.870731  0  2.124407  0  0  0.727291  0  2.599797  0  0  0.771873  0  2.546396  0  1.018759  0  0.473167  0.696538  0  2.636049  0
P  P2  1  0.47896075  0.81655123  0.99069129  1  0  1.014415  0  4.316701  0  0  0.917845  0  4.73276  0  0  0.948577  0  4.724564  0  2.702505  0  0.261346  0.896725  0  4.738055  0
P  P3  1  0.52103931  0.18345170  0.00930850  1  0  1.014405  0  4.316786  0  0  0.91781  0  4.732816  0  0  0.948549  0  4.724622  0  2.702466  0  0.261288  0.89669  0  4.738108  0
P  P4  1  0.49296846  0.81340098  0.60751933  1  0  1.001617  0  4.30922  0  0  0.906411  0  4.724478  0  0  0.936434  0  4.717633  0  2.667095  0  0.252029  0.885609  0  4.729077  0
P  P5  1  0.50703070  0.18659807  0.39248153  1  0  1.001558  0  4.309108  0  0  0.90635  0  4.72447  0  0  0.936384  0  4.71763  0  2.667425  0  0.252048  0.88555  0  4.729058  0
H  H6  1  0.33882658  0.85965889  0.16195205  1  0  0.076676  0  0.985551  0  0  0.08329  0  1.059045  0  0  0.085872  0  1.05764  0  0.087466  0  0.089567  0.081391  0  1.060136  0
H  H7  1  0.66117532  0.14034209  0.83805022  1  0  0.076692  0  0.985562  0  0  0.083315  0  1.059049  0  0  0.085899  0  1.057642  0  0.087549  0  0.089576  0.081415  0  1.060139  0
H  H8  1  0.06809378  0.87592259  0.21377877  1  0  0.091805  0  0.959227  0  0  0.100124  0  1.022705  0  0  0.10333  0  1.021363  0  0.103279  0  0.094364  0.09776  0  1.023851  0
H  H9  1  0.93190638  0.12408324  0.78622154  1  0  0.091725  0  0.959274  0  0  0.100093  0  1.022702  0  0  0.103295  0  1.021365  0  0.103333  0  0.094356  0.097741  0  1.023839  0
H  H10  1  0.86134476  0.85225600  0.11947731  1  0  0.076376  0  0.986983  0  0  0.08413  0  1.056838  0  0  0.086782  0  1.055506  0  0.073462  0  0.087094  0.082198  0  1.05788  0
H  H11  1  0.13865506  0.14775080  0.88052142  1  0  0.076341  0  0.986956  0  0  0.084101  0  1.056814  0  0  0.086751  0  1.055486  0  0.073494  0  0.087072  0.08217  0  1.057855  0
H  H12  1  0.92441168  0.81756450  0.96649432  1  0  0.079656  0  0.977639  0  0  0.086694  0  1.048342  0  0  0.089596  0  1.047208  0  0.070599  0  0.089247  0.084567  0  1.049284  0
H  H13  1  0.07558883  0.18244036  0.03350559  1  0  0.079646  0  0.977666  0  0  0.086688  0  1.048358  0  0  0.089587  0  1.047228  0  0.070536  0  0.089236  0.08456  0  1.049301  0
H  H14  1  0.19575455  0.80361408  0.91278681  1  0  0.104927  0  0.943256  0  0  0.115927  0  1.001171  0  0  0.119106  0  0.999388  0  0.10289  0  0.107288  0.113539  0  1.00271  0
H  H15  1  0.80424710  0.19639078  0.08721375  1  0  0.104891  0  0.943202  0  0  0.115902  0  1.001119  0  0  0.119082  0  0.999331  0  0.102859  0  0.107265  0.113508  0  1.002658  0
H  H16  1  0.58145434  0.89375076  0.09614873  1  0  0.114577  0  0.981508  0  0  0.125544  0  1.052061  0  0  0.128168  0  1.051098  0  0.081396  0  0.092563  0.123606  0  1.052854  0
H  H17  1  0.41854493  0.10625119  0.90384936  1  0  0.114521  0  0.981531  0  0  0.125488  0  1.052071  0  0  0.128111  0  1.05111  0  0.081379  0  0.092525  0.123549  0  1.052865  0
H  H18  1  0.67059611  0.92568434  0.98716018  1  0  0.125154  0  0.947637  0  0  0.142171  0  1.006303  0  0  0.143553  0  1.007585  0  0.088637  0  0.109662  0.14114  0  1.0055  0
H  H19  1  0.32940806  0.07431665  0.01283942  1  0  0.125164  0  0.947702  0  0  0.142169  0  1.006368  0  0  0.143551  0  1.007649  0  0.088684  0  0.109649  0.141139  0  1.005565  0
H  H20  1  0.72245348  0.64097031  0.93057274  1  0  0.092891  0  0.964739  0  0  0.099242  0  1.034959  0  0  0.102324  0  1.033197  0  0.101121  0  0.099556  0.097041  0  1.036156  0
H  H21  1  0.27754465  0.35903164  0.06942405  1  0  0.092828  0  0.964857  0  0  0.099204  0  1.035053  0  0  0.102285  0  1.033294  0  0.101217  0  0.099549  0.097003  0  1.03625  0
H  H22  1  0.91297952  0.42475291  0.01951024  1  0  0.084823  0  0.969389  0  0  0.094711  0  1.032998  0  0  0.096863  0  1.03335  0  0.074124  0  0.098189  0.093161  0  1.032886  0
H  H23  1  0.08701747  0.57524904  0.98048393  1  0  0.084871  0  0.969388  0  0  0.094761  0  1.032996  0  0  0.096912  0  1.03335  0  0.074207  0  0.098201  0.093211  0  1.032885  0
H  H24  1  0.91371199  0.32416384  0.19431691  1  0  0.087665  0  0.980512  0  0  0.096246  0  1.046697  0  0  0.099659  0  1.044356  0  0.083326  0  0.087253  0.09374  0  1.048501  0
H  H25  1  0.08629243  0.67583327  0.80567914  1  0  0.087664  0  0.980496  0  0  0.096236  0  1.046702  0  0  0.099646  0  1.044359  0  0.083491  0  0.087243  0.093733  0  1.048496  0
H  H26  1  0.71955045  0.43705071  0.28091922  1  0  0.093277  0  0.946307  0  0  0.104896  0  1.002391  0  0  0.107228  0  1.002851  0  0.051324  0  0.100663  0.103234  0  1.002182  0
H  H27  1  0.28045169  0.56294641  0.71907752  1  0  0.093323  0  0.946196  0  0  0.10495  0  1.002269  0  0  0.107284  0  1.002718  0  0.051239  0  0.100713  0.103285  0  1.002068  0
H  H28  1  0.52665162  0.65017695  0.19320116  1  0  0.083082  0  0.974338  0  0  0.0923  0  1.041055  0  0  0.094873  0  1.039962  0  0.090715  0  0.094381  0.090394  0  1.041985  0
H  H29  1  0.47335087  0.34981920  0.80679782  1  0  0.083112  0  0.97433  0  0  0.092351  0  1.041027  0  0  0.094926  0  1.039932  0  0.091156  0  0.094414  0.090445  0  1.041955  0
H  H30  1  0.15239594  0.88609019  0.61364244  1  0  0.102275  0  0.948437  0  0  0.111803  0  1.00979  0  0  0.115184  0  1.007688  0  0.095796  0  0.102856  0.109343  0  1.011384  0
H  H31  1  0.84760447  0.11391177  0.38635301  1  0  0.102315  0  0.948409  0  0  0.111858  0  1.009726  0  0  0.115239  0  1.007622  0  0.095842  0  0.102877  0.109399  0  1.011318  0
H  H32  1  0.93538451  0.85926269  0.52830008  1  0  0.085401  0  0.967902  0  0  0.095113  0  1.032704  0  0  0.097379  0  1.032619  0  0.05749  0  0.095095  0.093479  0  1.032882  0
H  H33  1  0.06461545  0.14073733  0.47169722  1  0  0.085375  0  0.967914  0  0  0.095092  0  1.032713  0  0  0.097354  0  1.032639  0  0.057453  0  0.095078  0.093452  0  1.032906  0
H  H34  1  0.99946331  0.74440740  0.41476558  1  0  0.078431  0  0.975978  0  0  0.086197  0  1.04523  0  0  0.089153  0  1.04339  0  0.06721  0  0.087859  0.084039  0  1.046567  0
H  H35  1  0.00053987  0.25558681  0.58523457  1  0  0.078482  0  0.975975  0  0  0.086245  0  1.045223  0  0  0.089214  0  1.043371  0  0.067215  0  0.087886  0.08409  0  1.046558  0
H  H36  1  0.28242731  0.65026704  0.39091250  1  0  0.092121  0  0.94592  0  0  0.105278  0  0.999504  0  0  0.107708  0  0.999735  0  0.058954  0  0.100498  0.103536  0  0.999475  0
H  H37  1  0.71757428  0.34972523  0.60908953  1  0  0.092111  0  0.945974  0  0  0.105266  0  0.999547  0  0  0.107704  0  0.999772  0  0.058907  0  0.100494  0.103523  0  0.999519  0
H  H38  1  0.50006433  0.67679617  0.47581997  1  0  0.081888  0  0.978585  0  0  0.091542  0  1.044164  0  0  0.094188  0  1.042948  0  0.063473  0  0.091354  0.089577  0  1.04514  0
H  H39  1  0.49993885  0.32319803  0.52418018  1  0  0.08188  0  0.978658  0  0  0.09154  0  1.044225  0  0  0.094171  0  1.043025  0  0.063585  0  0.091377  0.089584  0  1.045191  0
H  H40  1  0.76835944  0.70041724  0.51634640  1  0  0.077222  0  0.988979  0  0  0.085932  0  1.059084  0  0  0.088502  0  1.057669  0  0.092594  0  0.090264  0.084058  0  1.060156  0
H  H41  1  0.23163949  0.29958569  0.48365934  1  0  0.077195  0  0.988932  0  0  0.085967  0  1.058966  0  0  0.088537  0  1.057547  0  0.09255  0  0.090284  0.084092  0  1.060036  0
H  H42  1  0.00272173  0.50798074  0.58361280  1  0  0.086042  0  0.952328  0  0  0.097287  0  1.011472  0  0  0.099992  0  1.01093  0  0.076404  0  0.098386  0.095325  0  1.011997  0
H  H43  1  0.99727719  0.49202219  0.41639030  1  0  0.086019  0  0.952327  0  0  0.097271  0  1.011477  0  0  0.099977  0  1.010936  0  0.076305  0  0.098385  0.09531  0  1.012001  0
H  H44  1  0.02609935  0.36713492  0.75317400  1  0  0.082325  0  0.982923  0  0  0.090043  0  1.051018  0  0  0.092506  0  1.050223  0  0.088616  0  0.090064  0.088216  0  1.051723  0
H  H45  1  0.97390323  0.63286413  0.24682879  1  0  0.082355  0  0.982944  0  0  0.090029  0  1.051091  0  0  0.092491  0  1.050296  0  0.088649  0  0.090054  0.088202  0  1.051798  0
H  H46  1  0.81364898  0.41780919  0.85696901  1  0  0.087288  0  0.971909  0  0  0.097934  0  1.032557  0  0  0.099593  0  1.034192  0  0.07183  0  0.09754  0.096723  0  1.031524  0
H  H47  1  0.18634780  0.58218696  0.14303466  1  0  0.087339  0  0.97192  0  0  0.097969  0  1.032576  0  0  0.099629  0  1.03421  0  0.072122  0  0.097537  0.096757  0  1.031543  0
H  H48  1  0.58064148  0.61458842  0.79135240  1  0  0.101442  0  0.944465  0  0  0.112958  0  1.003073  0  0  0.11586  0  1.001709  0  0.100756  0  0.106236  0.110805  0  1.004182  0
H  H49  1  0.41935942  0.38540579  0.20864977  1  0  0.101484  0  0.944364  0  0  0.112999  0  1.002981  0  0  0.115904  0  1.001614  0  0.100809  0  0.106242  0.110844  0  1.004093  0
H  H50  1  0.66781790  0.94296616  0.55440274  1  0  0.118944  0  0.967263  0  0  0.130187  0  1.035403  0  0  0.132517  0  1.035346  0  0.087981  0  0.096605  0.128484  0  1.035547  0
H  H51  1  0.33218058  0.05703483  0.44559958  1  0  0.118931  0  0.967243  0  0  0.130211  0  1.03534  0  0  0.132543  0  1.035283  0  0.088005  0  0.096615  0.128508  0  1.035482  0
H  H52  1  0.60716422  0.90042228  0.46135834  1  0  0.118235  0  0.972423  0  0  0.129932  0  1.039808  0  0  0.132333  0  1.039233  0  0.069861  0  0.094948  0.128139  0  1.040346  0
H  H53  1  0.39283881  0.09957871  0.53864326  1  0  0.118241  0  0.972423  0  0  0.129922  0  1.039822  0  0  0.132327  0  1.039246  0  0.06983  0  0.094941  0.128122  0  1.040367  0
C  C54  1  0.24966829  0.84841990  0.11924693  1  0  -0.062278  0  3.765041  0  0  -0.081692  0  4.007037  0  0  -0.082072  0  4.029586  0  -0.106605  0  -0.085663  -0.08126  0  3.99178  0
C  C55  1  0.75033291  0.15158302  0.88075482  1  0  -0.062257  0  3.764977  0  0  -0.08171  0  4.007044  0  0  -0.082091  0  4.029593  0  -0.106582  0  -0.085649  -0.081274  0  3.991786  0
C  C56  1  0.09666432  0.85742795  0.14886709  1  0  -0.062328  0  3.751231  0  0  -0.073278  0  3.995525  0  0  -0.076796  0  4.01746  0  0.003381  0  -0.086297  -0.070824  0  3.980661  0
C  C57  1  0.90333619  0.14257691  0.85113414  1  0  -0.062273  0  3.751185  0  0  -0.073243  0  3.99549  0  0  -0.07676  0  4.017423  0  0.003389  0  -0.086287  -0.070802  0  3.980622  0
C  C58  1  0.98003731  0.84527062  0.09470003  1  0  -0.045784  0  3.736756  0  0  -0.057621  0  3.978363  0  0  -0.058002  0  3.999275  0  -0.035076  0  -0.083897  -0.057207  0  3.964082  0
C  C59  1  0.01996171  0.15473521  0.90529898  1  0  -0.045748  0  3.736609  0  0  -0.057605  0  3.978248  0  0  -0.057986  0  3.999155  0  -0.035216  0  -0.083894  -0.057193  0  3.963972  0
C  C60  1  0.01522433  0.82486859  0.01034106  1  0  -0.073183  0  3.759466  0  0  -0.083512  0  4.006938  0  0  -0.086928  0  4.028486  0  -0.121707  0  -0.089645  -0.081068  0  3.992267  0
C  C61  1  0.98477652  0.17513531  0.98966043  1  0  -0.073133  0  3.759387  0  0  -0.083461  0  4.00686  0  0  -0.086875  0  4.028407  0  -0.121719  0  -0.089577  -0.081018  0  3.992186  0
C  C62  1  0.16770658  0.81664616  0.97959027  1  0  -0.046992  0  3.737946  0  0  -0.069903  0  3.98134  0  0  -0.0693  0  4.001543  0  0.003193  0  -0.077353  -0.070197  0  3.9677  0
C  C63  1  0.83229656  0.18335773  0.02041119  1  0  -0.046927  0  3.737834  0  0  -0.069839  0  3.981232  0  0  -0.069234  0  4.001433  0  0.003202  0  -0.077316  -0.070124  0  3.967584  0
C  C64  1  0.28535850  0.82758679  0.03441479  1  0  -0.213707  0  3.78733  0  0  -0.172857  0  4.025242  0  0  -0.182081  0  4.050873  0  -0.618863  0  -0.031266  -0.166724  0  4.007982  0
C  C65  1  0.71464464  0.17241710  0.96558733  1  0  -0.213711  0  3.787213  0  0  -0.172895  0  4.025217  0  0  -0.18212  0  4.050847  0  -0.618812  0  -0.031308  -0.166767  0  4.007958  0
C  C66  1  0.55562427  0.93092023  0.01858455  1  0  -0.341986  0  3.673225  0  0  -0.361336  0  3.910729  0  0  -0.368152  0  3.921777  0  -0.557928  0  -0.163118  -0.356516  0  3.903129  0
C  C67  1  0.44437876  0.06908076  0.98141507  1  0  -0.341911  0  3.673158  0  0  -0.361242  0  3.910666  0  0  -0.36806  0  3.921716  0  -0.539309  0  -0.163047  -0.356422  0  3.903066  0
C  C68  1  0.61272964  0.65905906  0.05616548  1  0  -0.210914  0  3.785484  0  0  -0.169267  0  4.021796  0  0  -0.179054  0  4.048441  0  -0.614997  0  -0.032125  -0.162776  0  4.003621  0
C  C69  1  0.38726794  0.34093805  0.94383660  1  0  -0.210927  0  3.785548  0  0  -0.169191  0  4.02174  0  0  -0.178975  0  4.048376  0  -0.615038  0  -0.032083  -0.162703  0  4.003566  0
C  C70  1  0.72182992  0.59554646  0.00718147  1  0  -0.050121  0  3.746284  0  0  -0.069896  0  3.983396  0  0  -0.069456  0  4.004562  0  -0.05291  0  -0.082006  -0.069821  0  3.968703  0
C  C71  1  0.27816960  0.40445163  0.99281505  1  0  -0.049978  0  3.746427  0  0  -0.0698  0  3.983494  0  0  -0.06936  0  4.004661  0  -0.052942  0  -0.081951  -0.069724  0  3.968802  0
C  C72  1  0.82865993  0.47464834  0.05736751  1  0  -0.077307  0  3.763044  0  0  -0.086611  0  4.00642  0  0  -0.090584  0  4.02911  0  -0.052388  0  -0.090126  -0.084076  0  3.991036  0
C  C73  1  0.17133626  0.52535265  0.94262826  1  0  -0.077485  0  3.763029  0  0  -0.086791  0  4.00643  0  0  -0.090764  0  4.029118  0  -0.052463  0  -0.090228  -0.084257  0  3.991047  0
C  C74  1  0.82827458  0.41788087  0.15557846  1  0  -0.041859  0  3.73016  0  0  -0.055003  0  3.969852  0  0  -0.055007  0  3.989745  0  -0.026867  0  -0.081501  -0.054797  0  3.956589  0
C  C75  1  0.17172528  0.58211624  0.84441568  1  0  -0.041908  0  3.730345  0  0  -0.055057  0  3.970046  0  0  -0.055058  0  3.989936  0  -0.027055  0  -0.081534  -0.05485  0  3.956787  0
C  C76  1  0.71981494  0.48138767  0.20425618  1  0  -0.063397  0  3.743253  0  0  -0.072751  0  3.98876  0  0  -0.076159  0  4.010313  0  0.016689  0  -0.086265  -0.070612  0  3.974404  0
C  C77  1  0.28018378  0.51860944  0.79574126  1  0  -0.06326  0  3.743345  0  0  -0.072623  0  3.988866  0  0  -0.076029  0  4.010424  0  0.016857  0  -0.086208  -0.070487  0  3.97451  0
C  C78  1  0.61156071  0.60161350  0.15479092  1  0  -0.055569  0  3.76971  0  0  -0.078661  0  4.013618  0  0  -0.078678  0  4.036103  0  -0.109748  0  -0.084565  -0.078488  0  3.998474  0
C  C79  1  0.38844257  0.39838362  0.84520514  1  0  -0.055664  0  3.76959  0  0  -0.078806  0  4.013484  0  0  -0.078824  0  4.035967  0  -0.110279  0  -0.08463  -0.078633  0  3.998343  0
C  C80  1  0.18009609  0.83524736  0.56442053  1  0  -0.048338  0  3.741372  0  0  -0.071218  0  3.985232  0  0  -0.070736  0  4.005719  0  -0.050856  0  -0.079874  -0.07132  0  3.9713  0
C  C81  1  0.81990615  0.16475266  0.43557936  1  0  -0.048487  0  3.741489  0  0  -0.071352  0  3.985359  0  0  -0.070867  0  4.005843  0  -0.050953  0  -0.079906  -0.071454  0  3.971424  0
C  C82  1  0.05870031  0.81967145  0.51624756  1  0  -0.068316  0  3.756568  0  0  -0.079894  0  4.00479  0  0  -0.083722  0  4.027944  0  -0.004801  0  -0.08969  -0.077398  0  3.989113  0
C  C83  1  0.94130228  0.18032760  0.48374930  1  0  -0.068224  0  3.756462  0  0  -0.0798  0  4.004672  0  0  -0.083629  0  4.027826  0  -0.004735  0  -0.089667  -0.077306  0  3.988994  0
C  C84  1  0.09529609  0.75403252  0.45358074  1  0  -0.054885  0  3.753491  0  0  -0.069425  0  4.000248  0  0  -0.06976  0  4.020978  0  -0.019399  0  -0.086183  -0.068859  0  3.986054  0
C  C85  1  0.90470650  0.24596653  0.54642139  1  0  -0.05502  0  3.753308  0  0  -0.069563  0  4.000076  0  0  -0.069911  0  4.020799  0  -0.019458  0  -0.086221  -0.068999  0  3.985885  0
C  C86  1  0.25406948  0.70185481  0.43967821  1  0  -0.069382  0  3.760296  0  0  -0.079627  0  4.005082  0  0  -0.083092  0  4.026991  0  -0.037756  0  -0.090068  -0.07736  0  3.990169  0
C  C87  1  0.74592924  0.29814231  0.56031990  1  0  -0.069371  0  3.760428  0  0  -0.079608  0  4.005224  0  0  -0.08308  0  4.027126  0  -0.037648  0  -0.090127  -0.077339  0  3.990315  0
C  C88  1  0.37651805  0.71651529  0.48767962  1  0  -0.056715  0  3.77354  0  0  -0.079303  0  4.016255  0  0  -0.079409  0  4.038583  0  -0.01778  0  -0.086957  -0.079044  0  4.001007  0
C  C89  1  0.62348225  0.28348376  0.51232057  1  0  -0.056682  0  3.773486  0  0  -0.079248  0  4.016214  0  0  -0.07934  0  4.038547  0  -0.017893  0  -0.086924  -0.078997  0  4.000962  0
C  C90  1  0.33943451  0.78407808  0.54965016  1  0  -0.209308  0  3.788261  0  0  -0.168624  0  4.029003  0  0  -0.178045  0  4.055109  0  -0.607864  0  -0.031562  -0.162244  0  4.011276  0
C  C91  1  0.66056877  0.21591904  0.45034920  1  0  -0.209181  0  3.788021  0  0  -0.168557  0  4.028832  0  0  -0.177978  0  4.054928  0  -0.607867  0  -0.031541  -0.162174  0  4.0111  0
C  C92  1  0.65974035  0.66979142  0.65006588  1  0  -0.213696  0  3.800867  0  0  -0.173711  0  4.039587  0  0  -0.18276  0  4.065232  0  -0.641126  0  -0.031343  -0.167679  0  4.02235  0
C  C93  1  0.34025699  0.33020957  0.34993316  1  0  -0.213636  0  3.80081  0  0  -0.173662  0  4.039536  0  0  -0.182729  0  4.065206  0  -0.641037  0  -0.031352  -0.167634  0  4.022316  0
C  C94  1  0.77763679  0.63934772  0.59114423  1  0  -0.055835  0  3.765101  0  0  -0.076489  0  4.007143  0  0  -0.076805  0  4.029894  0  -0.081763  0  -0.084989  -0.076181  0  3.991832  0
C  C95  1  0.22235792  0.36065424  0.40886051  1  0  -0.055887  0  3.764933  0  0  -0.07658  0  4.006986  0  0  -0.076889  0  4.029737  0  -0.081891  0  -0.085035  -0.076272  0  3.991672  0
C  C96  1  0.90913823  0.53037154  0.62871857  1  0  -0.070968  0  3.759195  0  0  -0.081136  0  4.003854  0  0  -0.084937  0  4.026085  0  -0.016513  0  -0.088678  -0.078624  0  3.988887  0
C  C97  1  0.09086505  0.46962557  0.37128540  1  0  -0.070854  0  3.759245  0  0  -0.081033  0  4.003899  0  0  -0.084835  0  4.026129  0  -0.016485  0  -0.088637  -0.07852  0  3.988928  0
C  C98  1  0.92239299  0.45149226  0.72426406  1  0  -0.047604  0  3.745028  0  0  -0.060769  0  3.986716  0  0  -0.060883  0  4.007823  0  -0.02536  0  -0.083646  -0.060585  0  3.972456  0
C  C99  1  0.07760057  0.54850970  0.27573938  1  0  -0.047646  0  3.744899  0  0  -0.060782  0  3.986587  0  0  -0.060896  0  4.007691  0  -0.025378  0  -0.083639  -0.0606  0  3.972329  0
C  C100  1  0.80354844  0.48043349  0.78261164  1  0  -0.066588  0  3.745882  0  0  -0.075425  0  3.987995  0  0  -0.07914  0  4.010912  0  -0.073003  0  -0.087527  -0.073002  0  3.97247  0
C  C101  1  0.19645028  0.51956362  0.21738910  1  0  -0.066652  0  3.745992  0  0  -0.075463  0  3.98806  0  0  -0.079176  0  4.010976  0  -0.075116  0  -0.087543  -0.073035  0  3.972532  0
C  C102  1  0.67248197  0.58975550  0.74601645  1  0  -0.051011  0  3.747361  0  0  -0.074759  0  3.991988  0  0  -0.074352  0  4.012682  0  -0.038263  0  -0.080623  -0.074782  0  3.977947  0
C  C103  1  0.32750807  0.41024355  0.25398917  1  0  -0.051071  0  3.747701  0  0  -0.07482  0  3.992306  0  0  -0.074412  0  4.01301  0  -0.036617  0  -0.080621  -0.074844  0  3.978258  0
C  C104  1  0.56509279  0.93527362  0.51889181  1  0  -0.344427  0  3.678937  0  0  -0.361428  0  3.912947  0  0  -0.368488  0  3.924194  0  -0.538078  0  -0.166712  -0.356426  0  3.905363  0
C  C105  1  0.43490900  0.06472447  0.48111060  1  0  -0.344436  0  3.678992  0  0  -0.361432  0  3.912953  0  0  -0.368508  0  3.924212  0  -0.555974  0  -0.166692  -0.356424  0  3.905374  0
I  I106  1  0.32850000  0.18293247  0.70450310  1  0  -0.486837  0  1.039195  0  0  -0.430494  0  1.344729  0  0  -0.448594  0  1.318437  0  -0.523128  0  -0.195507  -0.417346  0  1.362717  0
I  I107  1  0.67149848  0.81706852  0.29549659  1  0  -0.486864  0  1.03922  0  0  -0.430503  0  1.344734  0  0  -0.4486  0  1.318439  0  -0.523129  0  -0.195513  -0.417353  0  1.362723  0
I  I108  1  0.80996740  0.90969382  0.74460880  1  0  -0.485202  0  1.024257  0  0  -0.431116  0  1.331071  0  0  -0.450734  0  1.308982  0  -0.511309  0  -0.207333  -0.416961  0  1.346034  0
I  I109  1  0.19002879  0.09030717  0.25539026  1  0  -0.485183  0  1.024284  0  0  -0.431111  0  1.331133  0  0  -0.450728  0  1.30904  0  -0.511273  0  -0.207318  -0.416953  0  1.346097  0
O  O110  1  0.46857075  0.84003861  0.88576008  1  0  -0.724053  0  2.103065  0  0  -0.638751  0  2.388  0  0  -0.663684  0  2.36819  0  -1.441586  0  -0.363569  -0.62139  0  2.401197  0
O  O111  1  0.53142292  0.15996625  0.11423994  1  0  -0.724154  0  2.103173  0  0  -0.638821  0  2.388104  0  0  -0.663768  0  2.368292  0  -1.441577  0  -0.363568  -0.621455  0  2.401294  0
O  O112  1  0.42243331  0.85819227  0.68678613  1  0  -0.710696  0  2.047641  0  0  -0.626467  0  2.319997  0  0  -0.651733  0  2.302462  0  -1.425604  0  -0.360006  -0.608798  0  2.331765  0
O  O113  1  0.57756209  0.14180775  0.31321255  1  0  -0.710668  0  2.047502  0  0  -0.626475  0  2.319878  0  0  -0.651746  0  2.302354  0  -1.425735  0  -0.360037  -0.608808  0  2.331648  0
