# generated using pymatgen
data_Cu2H9C12N5
_symmetry_space_group_name_H-M   'P 1'
_cell_length_a   8.08789529
_cell_length_b   9.10339264
_cell_length_c   10.01800684
_cell_angle_alpha   60.59430573
_cell_angle_beta   72.55446378
_cell_angle_gamma   77.58230288
_symmetry_Int_Tables_number   1
_chemical_formula_structural   Cu2H9C12N5
_chemical_formula_sum   'Cu4 H18 C24 N10'
_cell_volume   610.96785212
_cell_formula_units_Z   2
loop_
 _symmetry_equiv_pos_site_id
 _symmetry_equiv_pos_as_xyz
  1  'x, y, z'
loop_
 _atom_site_type_symbol
 _atom_site_label
 _atom_site_symmetry_multiplicity
 _atom_site_fract_x
 _atom_site_fract_y
 _atom_site_fract_z
 _atom_site_occupancy
 _atom_site_pbe_bader_spin_density
 _atom_site_pbe_cm5_charge
 _atom_site_pbe_ddec_charge
 _atom_site_pbe_ddec_spin_density
 _atom_site_pbe_ddec_sum_bond_order
 _atom_site_pbe_magmom
Cu  Cu0  1  0.16907758  0.56339990  0.95001970  1  0  0.419383  0.20726  0  2.969614  0
Cu  Cu1  1  0.83090030  0.43660610  0.04998543  1  0  0.419406  0.207266  0  2.969384  0
Cu  Cu2  1  0.08309221  0.15963031  0.79593855  1  0  0.597203  0.442932  0  2.496845  0
Cu  Cu3  1  0.91689879  0.84037458  0.20405495  1  0  0.597153  0.442807  0  2.496894  0
H  H4  1  0.40709290  0.63810293  0.08799058  1  0  0.11215  0.082944  0  0.999311  0
H  H5  1  0.59291880  0.36188517  0.91201824  1  0  0.112156  0.082956  0  0.999259  0
H  H6  1  0.12923754  0.23171595  0.23520136  1  0  0.110946  0.079898  0  1.014793  0
H  H7  1  0.87076818  0.76828238  0.76480046  1  0  0.110924  0.079843  0  1.01475  0
H  H8  1  0.23842559  0.06895348  0.48081905  1  0  0.109115  0.130466  0  1.005261  0
H  H9  1  0.76157735  0.93104745  0.51917932  1  0  0.109113  0.130423  0  1.005296  0
H  H10  1  0.52615727  0.49793277  0.32365456  1  0  0.106345  0.128657  0  1.029682  0
H  H11  1  0.47384828  0.50205166  0.67635231  1  0  0.106328  0.128604  0  1.029741  0
H  H12  1  0.74187778  0.36230978  0.38123122  1  0  0.098673  0.112267  0  1.088182  0
H  H13  1  0.25811587  0.63769366  0.61877026  1  0  0.098639  0.112207  0  1.088141  0
H  H14  1  0.96866653  0.36596181  0.49350667  1  0  0.112109  0.081602  0  1.008079  0
H  H15  1  0.03133431  0.63404931  0.50648480  1  0  0.112087  0.081557  0  1.008093  0
H  H16  1  0.49371719  0.00496630  0.85020306  1  0  0.109039  0.125446  0  1.017614  0
H  H17  1  0.50629169  0.99502593  0.14978966  1  0  0.10904  0.125444  0  1.017607  0
H  H18  1  0.74634499  0.00992255  0.94055604  1  0  0.108383  0.07354  0  1.041264  0
H  H19  1  0.25366798  0.99006713  0.05943782  1  0  0.10838  0.073587  0  1.041184  0
H  H20  1  0.37898504  0.07416371  0.64517565  1  0  0.299901  0.254216  0  1.018974  0
H  H21  1  0.62102409  0.92582448  0.35482974  1  0  0.299884  0.254224  0  1.018985  0
C  C22  1  0.37436177  0.51046087  0.17681611  1  0  0.041972  0.105901  0  3.964541  0
C  C23  1  0.62564006  0.48953749  0.82318563  1  0  0.041967  0.105934  0  3.964382  0
C  C24  1  0.21952420  0.28450097  0.25913965  1  0  0.036859  0.0975  0  3.967075  0
C  C25  1  0.78047136  0.71549490  0.74086365  1  0  0.036918  0.097626  0  3.967182  0
C  C26  1  0.28078718  0.19434854  0.39530955  1  0  -0.099537  -0.244933  0  3.96423  0
C  C27  1  0.71921892  0.80564461  0.60469941  1  0  -0.099563  -0.244963  0  3.964374  0
C  C28  1  0.44314028  0.42982867  0.30953144  1  0  -0.099453  -0.24431  0  3.962432  0
C  C29  1  0.55686556  0.57016846  0.69046789  1  0  -0.099409  -0.244311  0  3.962578  0
C  C30  1  0.39866894  0.26523563  0.42251766  1  0  0.11464  0.275725  0  4.030251  0
C  C31  1  0.60132783  0.73476157  0.57748179  1  0  0.114627  0.275759  0  4.030166  0
C  C32  1  0.59092261  0.18671135  0.60777034  1  0  0.115998  0.276763  0  4.03253  0
C  C33  1  0.40907648  0.81328974  0.39222188  1  0  0.116029  0.276812  0  4.032422  0
C  C34  1  0.72980659  0.28770403  0.50738159  1  0  -0.100019  -0.23286  0  3.930185  0
C  C35  1  0.27018386  0.71230705  0.49261536  1  0  -0.0999  -0.232715  0  3.929883  0
C  C36  1  0.86137177  0.28680653  0.57019317  1  0  0.03674  0.101078  0  3.978179  0
C  C37  1  0.13862313  0.71319839  0.42979740  1  0  0.036672  0.101025  0  3.978275  0
C  C38  1  0.59683001  0.08725992  0.76790370  1  0  -0.093912  -0.231257  0  3.940608  0
C  C39  1  0.40317273  0.91274356  0.23209261  1  0  -0.093981  -0.231347  0  3.940654  0
C  C40  1  0.73626579  0.09073994  0.81865308  1  0  0.034611  0.099316  0  3.968327  0
C  C41  1  0.26374019  0.90925605  0.18134071  1  0  0.034629  0.099267  0  3.968282  0
C  C42  1  0.14422703  0.41079452  0.88442376  1  0  -0.064015  -0.092255  0  3.940123  0
C  C43  1  0.85576697  0.58922021  0.11557676  1  0  -0.064115  -0.092365  0  3.940276  0
C  C44  1  0.18913100  0.79630867  0.85828336  1  0  -0.04621  -0.053177  0  3.807738  0
C  C45  1  0.81085662  0.20368827  0.14173135  1  0  -0.04622  -0.053144  0  3.808457  0
N  N46  1  0.26559276  0.44094102  0.14878335  1  0  -0.363183  -0.208214  0  3.61338  0
N  N47  1  0.73441223  0.55904959  0.85122797  1  0  -0.363265  -0.208308  0  3.613332  0
N  N48  1  0.45594893  0.16965578  0.56039913  1  0  -0.399198  -0.328837  0  3.619829  0
N  N49  1  0.54404914  0.83034141  0.43960002  1  0  -0.399164  -0.328828  0  3.619723  0
N  N50  1  0.86893300  0.18969586  0.72246132  1  0  -0.37559  -0.253986  0  3.670094  0
N  N51  1  0.13106576  0.81030892  0.27753439  1  0  -0.375505  -0.253836  0  3.670211  0
N  N52  1  0.18497233  0.94330508  0.81488029  1  0  -0.459216  -0.414847  0  3.694613  0
N  N53  1  0.81503420  0.05671458  0.18511912  1  0  -0.459149  -0.414768  0  3.695215  0
N  N54  1  0.14172888  0.31593984  0.83658744  1  0  -0.463751  -0.370848  0  3.703055  0
N  N55  1  0.85825851  0.68407611  0.16341711  1  0  -0.463663  -0.370742  0  3.703353  0
