# generated using pymatgen
data_CdH32C36(IN6)2
_symmetry_space_group_name_H-M   'P 1'
_cell_length_a   7.52912245
_cell_length_b   8.84058896
_cell_length_c   15.16181757
_cell_angle_alpha   90.48106914
_cell_angle_beta   82.12238954
_cell_angle_gamma   69.51047457
_symmetry_Int_Tables_number   1
_chemical_formula_structural   CdH32C36(IN6)2
_chemical_formula_sum   'Cd1 H32 C36 I2 N12'
_cell_volume   934.70238761
_cell_formula_units_Z   1
loop_
 _symmetry_equiv_pos_site_id
 _symmetry_equiv_pos_as_xyz
  1  'x, y, z'
loop_
 _atom_site_type_symbol
 _atom_site_label
 _atom_site_symmetry_multiplicity
 _atom_site_fract_x
 _atom_site_fract_y
 _atom_site_fract_z
 _atom_site_occupancy
 _atom_site_hle17_bader_spin_density
 _atom_site_hle17_ddec_charge
 _atom_site_hle17_ddec_spin_density
 _atom_site_hle17_ddec_sum_bond_order
 _atom_site_hle17_magmom
 _atom_site_hse06_10hf_bader_spin_density
 _atom_site_hse06_10hf_ddec_charge
 _atom_site_hse06_10hf_ddec_spin_density
 _atom_site_hse06_10hf_ddec_sum_bond_order
 _atom_site_hse06_10hf_magmom
 _atom_site_hse06_bader_spin_density
 _atom_site_hse06_ddec_charge
 _atom_site_hse06_ddec_spin_density
 _atom_site_hse06_ddec_sum_bond_order
 _atom_site_hse06_magmom
 _atom_site_pbe_bader_spin_density
 _atom_site_pbe_cm5_charge
 _atom_site_pbe_ddec_charge
 _atom_site_pbe_ddec_spin_density
 _atom_site_pbe_ddec_sum_bond_order
 _atom_site_pbe_magmom
Cd  Cd0  1  0.00000175  0.99999893  0.50000040  1  0  0.87658  0  2.009341  0  0  0.705571  0  2.445446  0  0  0.75414  0  2.41004  0  0  0.625135  0.671802  0  2.469026  0
H  H1  1  0.07454169  0.16451391  0.28837812  1  0  0.091464  0  0.918615  0  0  0.1059  0  0.970727  0  0  0.107658  0  0.969037  0  0  0.135426  0.104579  0  0.972014  0
H  H2  1  0.92546246  0.83548730  0.71163146  1  0  0.091518  0  0.918531  0  0  0.105971  0  0.97063  0  0  0.107729  0  0.968939  0  0  0.135444  0.104648  0  0.971921  0
H  H3  1  0.43793508  0.73530490  0.38118429  1  0  0.107464  0  0.972469  0  0  0.105244  0  1.057223  0  0  0.109061  0  1.052573  0  0  0.129718  0.102445  0  1.060489  0
H  H4  1  0.56207754  0.26468499  0.61881156  1  0  0.107412  0  0.972465  0  0  0.105192  0  1.057248  0  0  0.109009  0  1.052598  0  0  0.129712  0.102393  0  1.060514  0
H  H5  1  0.57007397  0.65400352  0.16475014  1  0  0.081805  0  0.970362  0  0  0.093177  0  1.040107  0  0  0.092786  0  1.042795  0  0  0.107993  0.093422  0  1.038249  0
H  H6  1  0.42992355  0.34599370  0.83524942  1  0  0.08182  0  0.970449  0  0  0.093184  0  1.040157  0  0  0.092792  0  1.042846  0  0  0.107993  0.093429  0  1.038301  0
H  H7  1  0.70218528  0.66174114  0.25260410  1  0  0.092923  0  0.929062  0  0  0.105116  0  0.997188  0  0  0.106565  0  0.99563  0  0  0.112008  0.103976  0  0.998394  0
H  H8  1  0.29782397  0.33825365  0.74739393  1  0  0.092983  0  0.929195  0  0  0.105153  0  0.997292  0  0  0.106601  0  0.995735  0  0  0.112033  0.104016  0  0.998496  0
H  H9  1  0.61816305  0.77220457  0.02597292  1  0  0.095195  0  0.959309  0  0  0.106034  0  1.019236  0  0  0.108271  0  1.019547  0  0  0.100173  0.104425  0  1.019081  0
H  H10  1  0.38184483  0.22779013  0.97402258  1  0  0.095254  0  0.959246  0  0  0.106079  0  1.019179  0  0  0.108315  0  1.01949  0  0  0.10016  0.104452  0  1.019047  0
H  H11  1  0.79538631  0.90333001  0.92741327  1  0  0.093356  0  0.978853  0  0  0.10135  0  1.044603  0  0  0.104966  0  1.042  0  0  0.098382  0.098751  0  1.046524  0
H  H12  1  0.20461556  0.09666970  0.07258792  1  0  0.093359  0  0.978741  0  0  0.10135  0  1.04452  0  0  0.104966  0  1.041917  0  0  0.098363  0.098748  0  1.046437  0
H  H13  1  0.05295386  0.00019678  0.14920636  1  0  0.079156  0  1.005962  0  0  0.087208  0  1.074288  0  0  0.089607  0  1.07359  0  0  0.094247  0.085475  0  1.074865  0
H  H14  1  0.94705188  0.99979680  0.85079194  1  0  0.079145  0  1.005941  0  0  0.087154  0  1.074335  0  0  0.089554  0  1.073638  0  0  0.094255  0.085425  0  1.074903  0
H  H15  1  0.86466751  0.87590983  0.24855149  1  0  0.084845  0  0.989021  0  0  0.090943  0  1.062329  0  0  0.094304  0  1.060285  0  0  0.08302  0.088461  0  1.063876  0
H  H16  1  0.13533199  0.12408237  0.75144267  1  0  0.084871  0  0.988989  0  0  0.090972  0  1.062292  0  0  0.094334  0  1.06024  0  0  0.083069  0.088482  0  1.063862  0
H  H17  1  0.85067513  0.41799557  0.44566174  1  0  0.085016  0  0.983038  0  0  0.088683  0  1.05788  0  0  0.091715  0  1.054135  0  0  0.107381  0.086368  0  1.060663  0
H  H18  1  0.14931806  0.58200913  0.55434534  1  0  0.084885  0  0.983069  0  0  0.088607  0  1.057875  0  0  0.091594  0  1.054167  0  0  0.107336  0.086292  0  1.060657  0
H  H19  1  0.56298974  0.09837003  0.40389032  1  0  0.103866  0  0.952626  0  0  0.108288  0  1.026176  0  0  0.111775  0  1.021628  0  0  0.126132  0.105683  0  1.029358  0
H  H20  1  0.43701297  0.90163091  0.59611146  1  0  0.103894  0  0.952583  0  0  0.108295  0  1.026139  0  0  0.111783  0  1.02159  0  0  0.126126  0.105691  0  1.029319  0
H  H21  1  0.23518643  0.49937060  0.36152784  1  0  0.090918  0  0.94586  0  0  0.101124  0  1.019503  0  0  0.102989  0  1.017246  0  0  0.102651  0.09977  0  1.021072  0
H  H22  1  0.76481528  0.50063280  0.63847531  1  0  0.090934  0  0.94586  0  0  0.10111  0  1.019505  0  0  0.102982  0  1.017247  0  0  0.102645  0.099752  0  1.021067  0
H  H23  1  0.29114255  0.29120740  0.33394714  1  0  0.083098  0  0.943988  0  0  0.096566  0  1.013417  0  0  0.096884  0  1.013659  0  0  0.111153  0.096307  0  1.013273  0
H  H24  1  0.70885798  0.70879228  0.66605348  1  0  0.083114  0  0.943984  0  0  0.096585  0  1.01338  0  0  0.096908  0  1.013625  0  0  0.11116  0.09632  0  1.013235  0
H  H25  1  0.12186287  0.61163572  0.22750803  1  0  0.089848  0  0.977501  0  0  0.099162  0  1.042438  0  0  0.101852  0  1.041734  0  0  0.09243  0.097183  0  1.043063  0
H  H26  1  0.87812978  0.38837009  0.77249577  1  0  0.089837  0  0.97746  0  0  0.099175  0  1.042379  0  0  0.101851  0  1.041691  0  0  0.092459  0.0972  0  1.043003  0
H  H27  1  0.18968679  0.66314212  0.07086401  1  0  0.086336  0  0.998834  0  0  0.096961  0  1.061429  0  0  0.098805  0  1.062266  0  0  0.095963  0.095648  0  1.060901  0
H  H28  1  0.81029696  0.33686236  0.92913783  1  0  0.086371  0  0.998868  0  0  0.096967  0  1.061475  0  0  0.098811  0  1.062313  0  0  0.095979  0.095655  0  1.060947  0
H  H29  1  0.74986786  0.28924271  0.05206669  1  0  0.08545  0  0.993577  0  0  0.095892  0  1.055951  0  0  0.098019  0  1.056119  0  0  0.096403  0.094378  0  1.055895  0
H  H30  1  0.25011271  0.71075310  0.94792952  1  0  0.085447  0  0.993597  0  0  0.095895  0  1.055979  0  0  0.098021  0  1.05615  0  0  0.096403  0.09438  0  1.055922  0
H  H31  1  0.67668673  0.23436813  0.20690985  1  0  0.086934  0  0.966727  0  0  0.096612  0  1.031436  0  0  0.09877  0  1.031561  0  0  0.095517  0.095111  0  1.031331  0
H  H32  1  0.32330301  0.76563134  0.79308565  1  0  0.08683  0  0.966775  0  0  0.096514  0  1.031494  0  0  0.098673  0  1.031619  0  0  0.095464  0.09502  0  1.031382  0
C  C33  1  0.19300436  0.05230402  0.29209623  1  0  0.183093  0  3.742037  0  0  0.132995  0  4.032899  0  0  0.144122  0  4.045204  0  0  0.137004  0.12577  0  4.024312  0
C  C34  1  0.80700611  0.94769461  0.70790763  1  0  0.183153  0  3.74195  0  0  0.133054  0  4.0328  0  0  0.144181  0  4.045104  0  0  0.137069  0.12583  0  4.024213  0
C  C35  1  0.37262525  0.83679367  0.34193731  1  0  0.16982  0  3.634952  0  0  0.092756  0  3.903454  0  0  0.10665  0  3.914772  0  0  0.156008  0.083996  0  3.895515  0
C  C36  1  0.62738738  0.16319627  0.65805985  1  0  0.169995  0  3.634919  0  0  0.092909  0  3.903433  0  0  0.1068  0  3.914753  0  0  0.156059  0.084149  0  3.895489  0
C  C37  1  0.61729174  0.73373120  0.20404419  1  0  -0.056695  0  3.64276  0  0  -0.134991  0  3.885811  0  0  -0.13089  0  3.895844  0  0  -0.044979  -0.137461  0  3.878888  0
C  C38  1  0.38270877  0.26626842  0.79595446  1  0  -0.056939  0  3.643235  0  0  -0.13512  0  3.886026  0  0  -0.131021  0  3.896064  0  0  -0.045042  -0.137596  0  3.87911  0
C  C39  1  0.72885986  0.81429246  0.14414380  1  0  0.073438  0  3.758857  0  0  0.091949  0  4.000479  0  0  0.091404  0  4.023775  0  0  -0.013631  0.092331  0  3.984574  0
C  C40  1  0.27114617  0.18570347  0.85585248  1  0  0.073607  0  3.758862  0  0  0.092105  0  4.000407  0  0  0.091563  0  4.0237  0  0  -0.013608  0.09249  0  3.984498  0
C  C41  1  0.71324437  0.82298325  0.05333980  1  0  -0.09754  0  3.739352  0  0  -0.116206  0  3.981586  0  0  -0.117732  0  4.002269  0  0  -0.086459  -0.115088  0  3.967482  0
C  C42  1  0.28676275  0.17701619  0.94665242  1  0  -0.09761  0  3.739435  0  0  -0.11627  0  3.981655  0  0  -0.117798  0  4.00234  0  0  -0.086425  -0.115139  0  3.96756  0
C  C43  1  0.81687034  0.89645461  0.99707281  1  0  -0.105595  0  3.725437  0  0  -0.122579  0  3.969186  0  0  -0.125364  0  3.98935  0  0  -0.089099  -0.120607  0  3.955502  0
C  C44  1  0.18314188  0.10354255  0.00292301  1  0  -0.105619  0  3.725474  0  0  -0.122613  0  3.969238  0  0  -0.125399  0  3.989405  0  0  -0.08907  -0.120636  0  3.955539  0
C  C45  1  0.94249255  0.96228205  0.02963919  1  0  0.037862  0  3.779557  0  0  0.050648  0  4.015589  0  0  0.050857  0  4.03903  0  0  -0.011523  0.05046  0  3.999768  0
C  C46  1  0.05751939  0.03771277  0.97035931  1  0  0.037815  0  3.779396  0  0  0.050633  0  4.015404  0  0  0.050843  0  4.038846  0  0  -0.011535  0.050455  0  3.999575  0
C  C47  1  0.95563552  0.95339759  0.12132398  1  0  -0.110931  0  3.75381  0  0  -0.127535  0  4.000375  0  0  -0.13041  0  4.021663  0  0  -0.094253  -0.125516  0  3.985958  0
C  C48  1  0.04437217  0.04660077  0.87867217  1  0  -0.110817  0  3.753563  0  0  -0.127429  0  4.000179  0  0  -0.130304  0  4.021467  0  0  -0.094171  -0.125413  0  3.985759  0
C  C49  1  0.85035025  0.88190464  0.17771823  1  0  -0.11329  0  3.7545  0  0  -0.131886  0  4.000609  0  0  -0.134582  0  4.021694  0  0  -0.09532  -0.129935  0  3.986326  0
C  C50  1  0.14965608  0.11809365  0.82227604  1  0  -0.113413  0  3.754531  0  0  -0.132003  0  4.000608  0  0  -0.134699  0  4.021695  0  0  -0.095456  -0.130056  0  3.986323  0
C  C51  1  0.74899935  0.36800295  0.42482450  1  0  0.189243  0  3.726103  0  0  0.137103  0  4.014375  0  0  0.148613  0  4.026841  0  0  0.130795  0.129792  0  4.00553  0
C  C52  1  0.25099782  0.63200166  0.57517898  1  0  0.189492  0  3.725954  0  0  0.13732  0  4.014209  0  0  0.148873  0  4.026696  0  0  0.130864  0.130011  0  4.005361  0
C  C53  1  0.60580983  0.20353272  0.40478999  1  0  0.16943  0  3.656159  0  0  0.092476  0  3.918629  0  0  0.107515  0  3.929194  0  0  0.155183  0.083165  0  3.911044  0
C  C54  1  0.39419021  0.79646824  0.59521264  1  0  0.169321  0  3.656098  0  0  0.092423  0  3.91861  0  0  0.107461  0  3.929177  0  0  0.155161  0.083117  0  3.911023  0
C  C55  1  0.34640595  0.39092518  0.32632962  1  0  -0.055439  0  3.657477  0  0  -0.135281  0  3.903171  0  0  -0.131176  0  3.913212  0  0  -0.044917  -0.137739  0  3.896283  0
C  C56  1  0.65359359  0.60907701  0.67367370  1  0  -0.055587  0  3.65767  0  0  -0.135302  0  3.90321  0  0  -0.13122  0  3.913282  0  0  -0.044942  -0.137725  0  3.896275  0
C  C57  1  0.39374874  0.41982871  0.22927612  1  0  0.069588  0  3.747811  0  0  0.088719  0  3.990355  0  0  0.087808  0  4.014704  0  0  -0.014191  0.089438  0  3.973636  0
C  C58  1  0.60624488  0.58017455  0.77072367  1  0  0.069671  0  3.747907  0  0  0.088769  0  3.990429  0  0  0.087866  0  4.014779  0  0  -0.01409  0.089481  0  3.973703  0
C  C59  1  0.25900815  0.53890281  0.18843160  1  0  -0.118963  0  3.754422  0  0  -0.134018  0  3.99248  0  0  -0.137204  0  4.014635  0  0  -0.096343  -0.131771  0  3.977416  0
C  C60  1  0.74098231  0.46110172  0.81157040  1  0  -0.11898  0  3.754373  0  0  -0.134054  0  3.992437  0  0  -0.137227  0  4.014594  0  0  -0.096415  -0.131811  0  3.977373  0
C  C61  1  0.29909967  0.56836637  0.09911482  1  0  -0.103248  0  3.733414  0  0  -0.121349  0  3.976786  0  0  -0.123297  0  3.99742  0  0  -0.091248  -0.11991  0  3.962688  0
C  C62  1  0.70088562  0.43163449  0.90088694  1  0  -0.103313  0  3.733546  0  0  -0.121376  0  3.976957  0  0  -0.123324  0  3.997588  0  0  -0.091317  -0.119937  0  3.96286  0
C  C63  1  0.47709835  0.48213428  0.04712347  1  0  0.035816  0  3.780655  0  0  0.048602  0  4.017244  0  0  0.049035  0  4.039031  0  0  -0.01247  0.048282  0  4.002497  0
C  C64  1  0.52288437  0.51787261  0.95287777  1  0  0.035881  0  3.780652  0  0  0.048592  0  4.017291  0  0  0.04902  0  4.039081  0  0  -0.01242  0.048272  0  4.002544  0
C  C65  1  0.61041815  0.36118512  0.08890212  1  0  -0.104295  0  3.732799  0  0  -0.11902  0  3.974157  0  0  -0.12123  0  3.994443  0  0  -0.089811  -0.117453  0  3.960378  0
C  C66  1  0.38956536  0.63882289  0.91109641  1  0  -0.104261  0  3.732638  0  0  -0.118974  0  3.974001  0  0  -0.121184  0  3.994287  0  0  -0.089779  -0.117408  0  3.960224  0
C  C67  1  0.56926667  0.33004895  0.17775375  1  0  -0.108224  0  3.751918  0  0  -0.130852  0  4.002497  0  0  -0.132976  0  4.023876  0  0  -0.094634  -0.129269  0  3.98779  0
C  C68  1  0.43072475  0.66995300  0.82224358  1  0  -0.108127  0  3.751875  0  0  -0.130768  0  4.002455  0  0  -0.132893  0  4.023835  0  0  -0.094613  -0.129189  0  3.987744  0
I  I69  1  0.84959286  0.75819110  0.43281980  1  0  -0.577749  0  0.882983  0  0  -0.536508  0  1.185446  0  0  -0.553537  0  1.164029  0  0  -0.292107  -0.523789  0  1.19978  0
I  I70  1  0.15040396  0.24181097  0.56718042  1  0  -0.577756  0  0.882978  0  0  -0.536511  0  1.185447  0  0  -0.553537  0  1.164023  0  0  -0.292107  -0.523793  0  1.199788  0
N  N71  1  0.75682256  0.21331190  0.43851141  1  0  -0.404402  0  3.190716  0  0  -0.331019  0  3.471701  0  0  -0.353371  0  3.487767  0  0  -0.350205  -0.315863  0  3.460043  0
N  N72  1  0.24317194  0.78669272  0.56149293  1  0  -0.404444  0  3.190613  0  0  -0.331083  0  3.471621  0  0  -0.353435  0  3.487674  0  0  -0.350199  -0.315924  0  3.459958  0
N  N73  1  0.21082773  0.96360046  0.36561430  1  0  -0.405694  0  3.252687  0  0  -0.333665  0  3.540593  0  0  -0.356682  0  3.55785  0  0  -0.35585  -0.318119  0  3.528352  0
N  N74  1  0.78918413  0.03638840  0.63438688  1  0  -0.405802  0  3.25292  0  0  -0.33382  0  3.540886  0  0  -0.356836  0  3.558141  0  0  -0.355952  -0.318272  0  3.52864  0
N  N75  1  0.44646893  0.85076768  0.25780092  1  0  0.055623  0  3.533418  0  0  0.176579  0  3.719003  0  0  0.166138  0  3.742203  0  0  -0.127128  0.182382  0  3.705041  0
N  N76  1  0.55353511  0.14923323  0.74219944  1  0  0.055561  0  3.533394  0  0  0.176531  0  3.718896  0  0  0.166086  0  3.742102  0  0  -0.127144  0.182337  0  3.704934  0
N  N77  1  0.33373179  0.98780184  0.22444369  1  0  -0.267978  0  2.844586  0  0  -0.266981  0  3.1072  0  0  -0.273872  0  3.119881  0  0  -0.220001  -0.262057  0  3.098644  0
N  N78  1  0.66627796  0.01220160  0.77555952  1  0  -0.267979  0  2.844366  0  0  -0.267008  0  3.106982  0  0  -0.273898  0  3.119661  0  0  -0.219992  -0.262084  0  3.098426  0
N  N79  1  0.51328930  0.34618122  0.37229684  1  0  0.044496  0  3.573952  0  0  0.168678  0  3.754592  0  0  0.157467  0  3.779462  0  0  -0.134133  0.174534  0  3.740424  0
N  N80  1  0.48671208  0.65381974  0.62770569  1  0  0.044698  0  3.573783  0  0  0.168771  0  3.754482  0  0  0.157566  0  3.77936  0  0  -0.134116  0.174594  0  3.740355  0
N  N81  1  0.60293395  0.45303491  0.38431476  1  0  -0.274347  0  2.866598  0  0  -0.269645  0  3.134782  0  0  -0.278362  0  3.149103  0  0  -0.221866  -0.263442  0  3.125037  0
N  N82  1  0.39706289  0.54696723  0.61568744  1  0  -0.274494  0  2.866542  0  0  -0.269779  0  3.134776  0  0  -0.278495  0  3.149079  0  0  -0.221915  -0.263571  0  3.125034  0
