# generated using pymatgen
data_Zn3H13(C13O6)2
_symmetry_space_group_name_H-M   'P 1'
_cell_length_a   18.92060815
_cell_length_b   18.88890898
_cell_length_c   18.88989358
_cell_angle_alpha   109.25942422
_cell_angle_beta   109.36194043
_cell_angle_gamma   109.36023493
_symmetry_Int_Tables_number   1
_chemical_formula_structural   Zn3H13(C13O6)2
_chemical_formula_sum   'Zn6 H26 C52 O24'
_cell_volume   5224.48605680
_cell_formula_units_Z   2
loop_
 _symmetry_equiv_pos_site_id
 _symmetry_equiv_pos_as_xyz
  1  'x, y, z'
loop_
 _atom_site_type_symbol
 _atom_site_label
 _atom_site_symmetry_multiplicity
 _atom_site_fract_x
 _atom_site_fract_y
 _atom_site_fract_z
 _atom_site_occupancy
 _atom_site_pbe_bader_charge
 _atom_site_pbe_bader_spin_density
 _atom_site_pbe_cm5_charge
 _atom_site_pbe_ddec_charge
 _atom_site_pbe_ddec_spin_density
 _atom_site_pbe_ddec_sum_bond_order
 _atom_site_pbe_magmom
Zn  Zn0  1  0.55723545  0.05929863  0.99967790  1  1.300228  0  0.734711  0.970747  0  2.076641  0
Zn  Zn1  1  0.44252089  0.94131647  0.00050104  1  1.297203  0  0.732439  0.969944  0  2.069593  0
Zn  Zn2  1  0.55754613  0.49953559  0.55867844  1  1.297636  0  0.732353  0.969783  0  2.069673  0
Zn  Zn3  1  0.44283178  0.50038074  0.44071075  1  1.300301  0  0.735006  0.971454  0  2.076158  0
Zn  Zn4  1  0.99993166  0.05826535  0.55803038  1  1.298664  0  0.734526  0.971619  0  2.069323  0
Zn  Zn5  1  0.00019212  0.94201176  0.44180114  1  1.300235  0  0.734469  0.971567  0  2.069332  0
H  H6  1  0.49242625  0.73692033  0.86965765  1  0.092095  0  0.10807  0.111938  0  0.985988  0
H  H7  1  0.38014297  0.00779010  0.73970706  1  0.072658  0  0.106751  0.110594  0  1.000189  0
H  H8  1  0.49563422  0.11957695  0.26113771  1  0.07674  0  0.108791  0.113844  0  0.988601  0
H  H9  1  0.50428434  0.23884319  0.38038361  1  0.075802  0  0.108912  0.114094  0  0.988405  0
H  H10  1  0.49811605  0.37517348  0.23788435  1  0.087766  0  0.109347  0.115415  0  0.98846  0
H  H11  1  0.50196360  0.26212552  0.12485617  1  0.0892  0  0.109368  0.115387  0  0.988382  0
H  H12  1  0.62352765  0.86278839  0.12544915  1  0.083488  0  0.107396  0.112215  0  0.991503  0
H  H13  1  0.74033506  0.86216455  0.23770013  1  0.086741  0  0.108177  0.113485  0  0.988094  0
H  H14  1  0.87532659  0.13957066  0.37805523  1  0.099659  0  0.10935  0.115067  0  0.98738  0
H  H15  1  0.76478576  0.14010935  0.25950135  1  0.08707  0  0.109313  0.114381  0  0.988211  0
H  H16  1  0.23523813  0.24055786  0.35989832  1  0.088137  0  0.109283  0.114226  0  0.988267  0
H  H17  1  0.49117684  0.94382691  0.77508804  1  0.083555  0  0.098392  0.107377  0  1.02943  0
H  H18  1  0.12471993  0.12197519  0.36045797  1  0.100894  0  0.109252  0.114904  0  0.987684  0
H  H19  1  0.25976391  0.26237194  0.63785081  1  0.086031  0  0.10834  0.113653  0  0.988057  0
H  H20  1  0.37653385  0.37463667  0.63721307  1  0.083013  0  0.10735  0.112321  0  0.99164  0
H  H21  1  0.61997670  0.76042326  0.49227869  1  0.072915  0  0.106753  0.110546  0  1.000203  0
H  H22  1  0.73911922  0.87845282  0.49993645  1  0.094291  0  0.108609  0.114226  0  0.988471  0
H  H23  1  0.87758769  0.73824514  0.50214377  1  0.087696  0  0.109464  0.114589  0  0.987212  0
H  H24  1  0.76440326  0.62660414  0.50718831  1  0.082757  0  0.108986  0.114629  0  0.98829  0
H  H25  1  0.49459435  0.95765120  0.65089043  1  0.038366  0  0.101339  0.096428  0  0.992583  0
H  H26  1  0.50902976  0.72499443  0.55629060  1  0.094057  0  0.098227  0.107325  0  1.028924  0
H  H27  1  0.50755746  0.63031670  0.76306249  1  0.091761  0  0.108053  0.111825  0  0.986109  0
H  H28  1  0.23566568  0.99285621  0.87345885  1  0.08375  0  0.10896  0.114521  0  0.988284  0
H  H29  1  0.12250895  0.99791526  0.76179858  1  0.086841  0  0.109289  0.114394  0  0.987602  0
H  H30  1  0.26103153  0.00014606  0.62166842  1  0.093912  0  0.108532  0.11412  0  0.988785  0
H  H31  1  0.50572855  0.84925325  0.54250597  1  0.038096  0  0.101298  0.096578  0  0.99254  0
C  C32  1  0.38440870  0.00301329  0.88193807  1  1.530144  0  0.221244  0.601613  0  4.153262  0
C  C33  1  0.49816727  0.82552337  0.73836381  1  -0.046704  0  0.001678  0.062658  0  3.942631  0
C  C34  1  0.49495389  0.81451602  0.80879399  1  -0.009286  0  -0.006885  -0.059259  0  3.92922  0
C  C35  1  0.49617522  0.74429804  0.81595329  1  -0.083847  0  -0.084644  -0.100384  0  4.006788  0
C  C36  1  0.50383629  0.68403100  0.75568968  1  -0.005614  0  -0.084595  -0.100346  0  4.007165  0
C  C37  1  0.50511290  0.69121783  0.68550565  1  -0.007382  0  -0.006907  -0.059264  0  3.929692  0
C  C38  1  0.24142050  0.99636966  0.81905485  1  -0.029544  0  -0.079612  -0.092635  0  3.969303  0
C  C39  1  0.17830164  0.99822462  0.75674368  1  0.008513  0  -0.079601  -0.093494  0  3.969272  0
C  C40  1  0.18545812  0.99927249  0.68549637  1  -0.077709  0  -0.010905  -0.019273  0  3.960173  0
C  C41  1  0.25709569  0.00047944  0.67800716  1  0.005646  0  -0.080848  -0.094566  0  3.971501  0
C  C42  1  0.32265104  0.00388952  0.74295377  1  0.007371  0  -0.081428  -0.094986  0  3.975928  0
C  C43  1  0.49440551  0.88014895  0.87918735  1  1.553549  0  0.224543  0.611775  0  4.146372  0
C  C44  1  0.31464639  0.00093230  0.81323041  1  -0.035922  0  -0.011486  -0.021434  0  3.962178  0
C  C45  1  0.49790159  0.17667635  0.25767901  1  -0.046198  0  -0.080268  -0.094591  0  3.96947  0
C  C46  1  0.50205390  0.24231714  0.32330516  1  -0.012158  0  -0.080342  -0.095046  0  3.969973  0
C  C47  1  0.50155581  0.31352323  0.31568937  1  0.008829  0  -0.011723  -0.018958  0  3.957517  0
C  C48  1  0.49944340  0.31986814  0.24316078  1  -0.073693  0  -0.080472  -0.095215  0  3.970307  0
C  C49  1  0.50062677  0.25684506  0.18015522  1  -0.013789  0  -0.080533  -0.09516  0  3.97063  0
C  C50  1  0.49845845  0.18429802  0.18649714  1  0.004376  0  -0.011698  -0.019059  0  3.957332  0
C  C51  1  0.67993986  0.92294242  0.18003954  1  -0.005236  0  -0.080463  -0.094446  0  3.972413  0
C  C52  1  0.74420572  0.92262461  0.24270217  1  -0.072345  0  -0.080095  -0.092403  0  3.969274  0
C  C53  1  0.81439685  0.00093038  0.31430554  1  -0.040683  0  -0.011823  -0.022782  0  3.961573  0
C  C54  1  0.61994049  0.00135002  0.11707055  1  1.538703  0  0.221719  0.60227  0  4.151754  0
C  C55  1  0.82087261  0.07941908  0.32154093  1  -0.005562  0  -0.080632  -0.093703  0  3.970134  0
C  C56  1  0.75926902  0.07970142  0.25620555  1  -0.049499  0  -0.079534  -0.093467  0  3.972052  0
C  C57  1  0.68799418  0.00145096  0.18574005  1  0.013559  0  -0.012151  -0.021667  0  3.961552  0
C  C58  1  0.38012360  0.38299715  0.49864327  1  1.543425  0  0.221885  0.602026  0  4.151339  0
C  C59  1  0.50567393  0.62083129  0.61987814  1  1.554289  0  0.224951  0.612656  0  4.146138  0
C  C60  1  0.61568319  0.61814436  0.49703185  1  1.528646  0  0.222102  0.602338  0  4.152765  0
C  C61  1  0.50223568  0.38222375  0.38418423  1  1.546886  0  0.2218  0.6013  0  4.14965  0
C  C62  1  0.11765737  0.11742302  0.49930265  1  1.532639  0  0.220361  0.60094  0  4.151864  0
C  C63  1  0.11716083  0.99954656  0.61757809  1  1.555193  0  0.220691  0.599988  0  4.155819  0
C  C64  1  0.88295264  0.88248213  0.50050870  1  1.550128  0  0.220994  0.600797  0  4.155488  0
C  C65  1  0.49779286  0.11579774  0.11781344  1  1.552247  0  0.221482  0.601138  0  4.150584  0
C  C66  1  0.88244615  0.00073185  0.38262820  1  1.566332  0  0.220531  0.600404  0  4.151228  0
C  C67  1  0.24077319  0.24385896  0.42032009  1  -0.050914  0  -0.079499  -0.093234  0  3.971823  0
C  C68  1  0.17918421  0.17851017  0.42061011  1  -0.005973  0  -0.08067  -0.093729  0  3.970653  0
C  C69  1  0.18568841  0.18575454  0.49911114  1  -0.002359  0  -0.011896  -0.023005  0  3.961586  0
C  C70  1  0.25588035  0.25737339  0.57740020  1  -0.070678  0  -0.079939  -0.092293  0  3.969295  0
C  C71  1  0.32012786  0.32004256  0.57707572  1  -0.007153  0  -0.080394  -0.094527  0  3.972515  0
C  C72  1  0.31206528  0.31434148  0.49856798  1  0.009085  0  -0.012329  -0.021677  0  3.960123  0
C  C73  1  0.67746419  0.75715759  0.49618283  1  0.009559  0  -0.081681  -0.094916  0  3.976176  0
C  C74  1  0.74303880  0.82209603  0.49958681  1  0.005612  0  -0.080718  -0.094344  0  3.97021  0
C  C75  1  0.81466633  0.81459167  0.50079131  1  -0.072917  0  -0.010621  -0.01945  0  3.959951  0
C  C76  1  0.49495523  0.89564485  0.72754383  1  0.013763  0  -0.093141  -0.133744  0  3.979747  0
C  C77  1  0.82179764  0.74332265  0.50181710  1  -0.000633  0  -0.079822  -0.093433  0  3.968311  0
C  C78  1  0.75866741  0.68102061  0.50367573  1  -0.023698  0  -0.079818  -0.092953  0  3.968497  0
C  C79  1  0.68544808  0.68686699  0.49912959  1  -0.038207  0  -0.011693  -0.022224  0  3.963165  0
C  C80  1  0.49715227  0.90347053  0.65819923  1  -0.078581  0  -0.094642  -0.084189  0  4.053808  0
C  C81  1  0.50311120  0.84192396  0.59665422  1  -0.038019  0  -0.094934  -0.084669  0  4.053588  0
C  C82  1  0.50521040  0.77252653  0.60443487  1  0.002731  0  -0.093177  -0.133819  0  3.978434  0
C  C83  1  0.50196849  0.76169200  0.67453646  1  0.008368  0  0.001653  0.062772  0  3.942699  0
O  O84  1  0.46083170  0.04075614  0.89409797  1  -1.151975  0  -0.315615  -0.552255  0  2.267135  0
O  O85  1  0.35751722  0.39636425  0.43459321  1  -1.144379  0  -0.315884  -0.55  0  2.255422  0
O  O86  1  0.56630640  0.60391211  0.64613033  1  -1.137867  0  -0.313958  -0.542704  0  2.240106  0
O  O87  1  0.44365100  0.58146305  0.54247694  1  -1.15682  0  -0.313225  -0.55438  0  2.292181  0
O  O88  1  0.63722671  0.57625907  0.53291671  1  -1.153654  0  -0.315986  -0.557155  0  2.283847  0
O  O89  1  0.53925943  0.60598434  0.45928461  1  -1.150556  0  -0.316103  -0.552687  0  2.266705  0
O  O90  1  0.53727995  0.39434681  0.46098242  1  -1.147278  0  -0.315931  -0.550818  0  2.260745  0
O  O91  1  0.46719648  0.42385306  0.36058858  1  -1.148353  0  -0.315839  -0.553639  0  2.285643  0
O  O92  1  0.10589860  0.14023961  0.56431150  1  -1.149986  0  -0.316302  -0.553284  0  2.271209  0
O  O93  1  0.07601532  0.04118099  0.43453474  1  -1.157205  0  -0.315612  -0.55172  0  2.267921  0
O  O94  1  0.07522710  0.03421550  0.64084605  1  -1.152078  0  -0.316281  -0.552034  0  2.26694  0
O  O95  1  0.36286170  0.96711917  0.92382007  1  -1.15433  0  -0.315714  -0.557112  0  2.283914  0
O  O96  1  0.10586603  0.96536329  0.54110973  1  -1.148723  0  -0.315991  -0.552058  0  2.273184  0
O  O97  1  0.89426113  0.95896240  0.53467627  1  -1.147097  0  -0.316226  -0.552565  0  2.27275  0
O  O98  1  0.92488396  0.85920374  0.46585147  1  -1.150795  0  -0.316299  -0.552158  0  2.26751  0
O  O99  1  0.92409121  0.06552074  0.45886116  1  -1.156223  0  -0.315829  -0.55157  0  2.267351  0
O  O100  1  0.89421536  0.93572613  0.35980774  1  -1.148437  0  -0.316149  -0.552887  0  2.270761  0
O  O101  1  0.55644094  0.95755392  0.91857298  1  -1.155809  0  -0.313033  -0.553926  0  2.292061  0
O  O102  1  0.43377455  0.85389014  0.89611056  1  -1.137854  0  -0.313979  -0.542495  0  2.239898  0
O  O103  1  0.64253789  0.06539712  0.10369766  1  -1.143432  0  -0.315588  -0.549698  0  2.255613  0
O  O104  1  0.54370209  0.93706027  0.07678232  1  -1.153189  0  -0.317246  -0.556431  0  2.284478  0
O  O105  1  0.53285735  0.13940718  0.07621378  1  -1.14868  0  -0.315494  -0.553229  0  2.286069  0
O  O106  1  0.46275819  0.03899582  0.10569405  1  -1.147657  0  -0.315807  -0.55073  0  2.260781  0
O  O107  1  0.45635611  0.42327190  0.56293448  1  -1.154465  0  -0.317029  -0.555993  0  2.284616  0
