# generated using pymatgen
data_AlH5C16O5F6
_symmetry_space_group_name_H-M   'P 1'
_cell_length_a   6.69101414
_cell_length_b   22.83334492
_cell_length_c   26.06940886
_cell_angle_alpha   90.00080122
_cell_angle_beta   89.99451870
_cell_angle_gamma   89.99393862
_symmetry_Int_Tables_number   1
_chemical_formula_structural   AlH5C16O5F6
_chemical_formula_sum   'Al4 H20 C64 O20 F24'
_cell_volume   3982.83819661
_cell_formula_units_Z   4
loop_
 _symmetry_equiv_pos_site_id
 _symmetry_equiv_pos_as_xyz
  1  'x, y, z'
loop_
 _atom_site_type_symbol
 _atom_site_label
 _atom_site_symmetry_multiplicity
 _atom_site_fract_x
 _atom_site_fract_y
 _atom_site_fract_z
 _atom_site_occupancy
 _atom_site_pbe_bader_charge
 _atom_site_pbe_bader_spin_density
 _atom_site_pbe_cm5_charge
 _atom_site_pbe_ddec_charge
 _atom_site_pbe_ddec_spin_density
 _atom_site_pbe_ddec_sum_bond_order
 _atom_site_pbe_magmom
Al  Al0  1  0.72024494  0.74976507  0.74999519  1  2.481736  0  0.40263  1.654277  0  2.573517  0
Al  Al1  1  0.27976564  0.25024287  0.25000873  1  2.481701  0  0.402751  1.654481  0  2.573274  0
Al  Al2  1  0.22023542  0.75021977  0.75000511  1  2.48181  0  0.402541  1.654339  0  2.573836  0
Al  Al3  1  0.77977516  0.24978248  0.24999420  1  2.481802  0  0.402571  1.65463  0  2.573492  0
H  H4  1  0.63640909  0.55550103  0.56799238  1  0.116528  0  0.106235  0.119988  0  1.002322  0
H  H5  1  0.36360599  0.44442108  0.43207061  1  0.116672  0  0.106064  0.119704  0  1.002816  0
H  H6  1  0.36343432  0.44494371  0.06832665  1  0.107316  0  0.106453  0.120262  0  1.001331  0
H  H7  1  0.63657776  0.55501694  0.93163699  1  0.106847  0  0.106522  0.12017  0  1.00115  0
H  H8  1  0.13659274  0.94500764  0.93162984  1  0.106695  0  0.106409  0.120091  0  1.001308  0
H  H9  1  0.86341933  0.05499636  0.06836679  1  0.106612  0  0.106362  0.120071  0  1.001323  0
H  H10  1  0.86343088  0.05518979  0.43178815  1  0.111838  0  0.106455  0.120256  0  1.001436  0
H  H11  1  0.13655579  0.94480371  0.56821155  1  0.112364  0  0.106438  0.120217  0  1.00149  0
H  H12  1  0.34518669  0.37562742  0.35806023  1  0.115957  0  0.110203  0.121034  0  1.009272  0
H  H13  1  0.65482989  0.62429775  0.64199855  1  0.114559  0  0.110375  0.121144  0  1.008869  0
H  H14  1  0.65500821  0.62393027  0.85771766  1  0.11201  0  0.110658  0.121697  0  1.007788  0
H  H15  1  0.34503076  0.37603344  0.14224982  1  0.111641  0  0.110519  0.121484  0  1.007753  0
H  H16  1  0.84502803  0.12392617  0.14227481  1  0.111317  0  0.110613  0.121506  0  1.007907  0
H  H17  1  0.15500496  0.87608440  0.85771721  1  0.112138  0  0.110567  0.12161  0  1.007764  0
H  H18  1  0.15494336  0.87592633  0.64215345  1  0.113436  0  0.11051  0.121396  0  1.008453  0
H  H19  1  0.84508216  0.12406628  0.35784433  1  0.113463  0  0.110545  0.121466  0  1.008417  0
H  H20  1  0.46860476  0.67254693  0.74991743  1  0.59705  0  0.359197  0.438813  0  0.838576  0
H  H21  1  0.53141777  0.32745839  0.25011411  1  0.598521  0  0.3592  0.438784  0  0.838582  0
H  H22  1  0.96855366  0.82744179  0.74999558  1  0.597664  0  0.359212  0.439008  0  0.838573  0
H  H23  1  0.03148083  0.17256177  0.24999185  1  0.597485  0  0.359195  0.439017  0  0.838669  0
C  C24  1  0.47089720  0.81913942  0.67970462  1  1.600314  0  0.270782  0.663761  0  4.090129  0
C  C25  1  0.52911786  0.18086327  0.32029584  1  1.599848  0  0.270837  0.663739  0  4.089942  0
C  C26  1  0.52910157  0.18085473  0.17971536  1  1.6  0  0.271103  0.663942  0  4.089674  0
C  C27  1  0.47091946  0.81914665  0.82028664  1  1.59994  0  0.271308  0.66414  0  4.089627  0
C  C28  1  0.97090776  0.68084838  0.82028955  1  1.599296  0  0.271234  0.664269  0  4.089042  0
C  C29  1  0.02910581  0.31915037  0.17970593  1  1.599223  0  0.271283  0.664302  0  4.088962  0
C  C30  1  0.02902046  0.31917731  0.32029600  1  1.599174  0  0.271075  0.663709  0  4.089692  0
C  C31  1  0.97095275  0.68083589  0.67970562  1  1.599607  0  0.270996  0.663898  0  4.089022  0
C  C32  1  0.96825130  0.64098260  0.63424010  1  0.045226  0  -0.018082  -0.135722  0  3.974475  0
C  C33  1  0.03168903  0.35903805  0.36575193  1  0.045354  0  -0.018001  -0.135256  0  3.974644  0
C  C34  1  0.03187347  0.35902735  0.13425492  1  0.029609  0  -0.018234  -0.136179  0  3.974816  0
C  C35  1  0.96812665  0.64096746  0.86573787  1  0.029716  0  -0.018024  -0.136206  0  3.974802  0
C  C36  1  0.46811203  0.85903022  0.86573546  1  0.028962  0  -0.017986  -0.135849  0  3.974829  0
C  C37  1  0.53191200  0.14096765  0.13426731  1  0.028811  0  -0.017945  -0.135712  0  3.974538  0
C  C38  1  0.53187253  0.14099631  0.36575319  1  0.029683  0  -0.018255  -0.136015  0  3.975069  0
C  C39  1  0.46815449  0.85900463  0.63424651  1  0.029531  0  -0.01818  -0.136043  0  3.975053  0
C  C40  1  0.13804138  0.62908086  0.60457550  1  0.515335  0  0.10454  0.171384  0  4.045423  0
C  C41  1  0.86185261  0.37098709  0.39538815  1  0.516333  0  0.104667  0.171304  0  4.045008  0
C  C42  1  0.86227767  0.37078942  0.10448971  1  0.517024  0  0.104488  0.171373  0  4.044541  0
C  C43  1  0.13770451  0.62922860  0.89551996  1  0.517758  0  0.104487  0.171748  0  4.04454  0
C  C44  1  0.63769419  0.87076298  0.89551807  1  0.517677  0  0.104541  0.171595  0  4.044547  0
C  C45  1  0.36231340  0.12922789  0.10449199  1  0.51768  0  0.1045  0.171215  0  4.044628  0
C  C46  1  0.36217984  0.12919256  0.39548095  1  0.515346  0  0.104825  0.171905  0  4.043718  0
C  C47  1  0.63783971  0.87081144  0.60452029  1  0.515821  0  0.104827  0.172027  0  4.043549  0
C  C48  1  0.12796144  0.59091339  0.56277352  1  0.469464  0  0.095146  0.137554  0  4.050562  0
C  C49  1  0.87193853  0.40915105  0.43719473  1  0.465107  0  0.094773  0.13721  0  4.05059  0
C  C50  1  0.87238439  0.40899382  0.06271250  1  0.467281  0  0.095045  0.137565  0  4.04939  0
C  C51  1  0.12757238  0.59103340  0.93730370  1  0.467647  0  0.095129  0.137503  0  4.049651  0
C  C52  1  0.62757090  0.90896307  0.93730115  1  0.46704  0  0.095001  0.137501  0  4.049518  0
C  C53  1  0.37241278  0.09102298  0.06271351  1  0.466803  0  0.095155  0.138001  0  4.04957  0
C  C54  1  0.37219712  0.09097700  0.43725174  1  0.467231  0  0.094941  0.13732  0  4.050475  0
C  C55  1  0.62780449  0.90902394  0.56274681  1  0.467213  0  0.094979  0.137301  0  4.050636  0
C  C56  1  0.94995848  0.56249464  0.54957545  1  0.09703  0  -0.017734  -0.046989  0  4.085584  0
C  C57  1  0.04998185  0.43752864  0.45042157  1  0.100305  0  -0.017716  -0.04684  0  4.08528  0
C  C58  1  0.05017923  0.43760972  0.04965566  1  0.105213  0  -0.018139  -0.047032  0  4.084425  0
C  C59  1  0.94979846  0.56239866  0.95034404  1  0.106736  0  -0.018245  -0.047287  0  4.084662  0
C  C60  1  0.44980498  0.93761273  0.95033725  1  0.106737  0  -0.018193  -0.047261  0  4.084677  0
C  C61  1  0.55018467  0.06237901  0.04967281  1  0.107254  0  -0.018225  -0.047296  0  4.084585  0
C  C62  1  0.55004255  0.06242011  0.45036199  1  0.107671  0  -0.018189  -0.047283  0  4.085445  0
C  C63  1  0.44995757  0.93757907  0.54963656  1  0.107449  0  -0.018188  -0.047203  0  4.0853  0
C  C64  1  0.77784159  0.57581206  0.57853691  1  -0.023788  0  -0.085447  -0.106834  0  3.966838  0
C  C65  1  0.22213014  0.42416085  0.42149041  1  -0.023286  0  -0.085207  -0.106493  0  3.967075  0
C  C66  1  0.22212408  0.42445778  0.07873619  1  -0.021193  0  -0.085332  -0.107679  0  3.96721  0
C  C67  1  0.77787603  0.57552169  0.92124203  1  -0.021771  0  -0.084992  -0.106893  0  3.966874  0
C  C68  1  0.27788876  0.92449563  0.92123674  1  -0.021291  0  -0.084943  -0.106856  0  3.967067  0
C  C69  1  0.72212182  0.07550487  0.07876564  1  -0.021189  0  -0.084929  -0.107033  0  3.966875  0
C  C70  1  0.72207246  0.07562618  0.42132692  1  -0.024763  0  -0.085264  -0.107268  0  3.967015  0
C  C71  1  0.27793214  0.92437432  0.57867584  1  -0.025627  0  -0.085302  -0.107293  0  3.967188  0
C  C72  1  0.78782129  0.61405485  0.61971018  1  0.031912  0  -0.080321  -0.075654  0  3.982311  0
C  C73  1  0.21215641  0.38591806  0.38031560  1  0.030576  0  -0.080438  -0.075915  0  3.9827  0
C  C74  1  0.21214583  0.38615834  0.11987817  1  0.049563  0  -0.08018  -0.075207  0  3.982519  0
C  C75  1  0.78786923  0.61382026  0.88009929  1  0.049544  0  -0.080767  -0.075987  0  3.983157  0
C  C76  1  0.28787166  0.88619044  0.88009695  1  0.049229  0  -0.080628  -0.076046  0  3.983243  0
C  C77  1  0.71215236  0.11381313  0.11990313  1  0.049965  0  -0.080643  -0.075694  0  3.983125  0
C  C78  1  0.71214790  0.11391138  0.38017985  1  0.046309  0  -0.080337  -0.075567  0  3.983108  0
C  C79  1  0.28787314  0.88608649  0.61982177  1  0.046662  0  -0.080239  -0.075465  0  3.983375  0
C  C80  1  0.93637280  0.52173843  0.50655760  1  0.566494  0  0.084802  0.118977  0  4.055886  0
C  C81  1  0.06359742  0.47828353  0.49343980  1  0.484055  0  0.084709  0.118755  0  4.055942  0
C  C82  1  0.06383324  0.47836997  0.00663589  1  0.483701  0  0.08445  0.118418  0  4.055033  0
C  C83  1  0.93612503  0.52164235  0.99336612  1  0.562447  0  0.084763  0.118804  0  4.055205  0
C  C84  1  0.43611527  0.97836791  0.99335868  1  0.482486  0  0.08475  0.118976  0  4.0549  0
C  C85  1  0.56386392  0.02161682  0.00665176  1  0.562775  0  0.084427  0.118239  0  4.054972  0
C  C86  1  0.56371923  0.02167753  0.49339161  1  0.565086  0  0.084723  0.118809  0  4.055381  0
C  C87  1  0.43627640  0.97832166  0.50660541  1  0.483441  0  0.084582  0.118634  0  4.055209  0
O  O88  1  0.30100921  0.80446180  0.80243526  1  -1.247057  0  -0.23288  -0.588533  0  2.337534  0
O  O89  1  0.69902229  0.19554483  0.19756176  1  -1.247527  0  -0.232784  -0.588559  0  2.337628  0
O  O90  1  0.69905348  0.19559054  0.30248013  1  -1.247756  0  -0.232702  -0.588312  0  2.337558  0
O  O91  1  0.30097055  0.80440646  0.69751765  1  -1.247873  0  -0.232645  -0.588252  0  2.337746  0
O  O92  1  0.80104304  0.69557474  0.69750948  1  -1.247434  0  -0.232733  -0.588252  0  2.338218  0
O  O93  1  0.19892120  0.30443846  0.30249444  1  -1.247489  0  -0.232842  -0.588207  0  2.338574  0
O  O94  1  0.19896770  0.30447115  0.19756647  1  -1.246912  0  -0.232671  -0.58822  0  2.338081  0
O  O95  1  0.80104138  0.69553067  0.80243054  1  -1.246853  0  -0.232634  -0.58829  0  2.338134  0
O  O96  1  0.63991178  0.80407218  0.69756558  1  -1.242184  0  -0.234747  -0.594398  0  2.36044  0
O  O97  1  0.36010627  0.19593927  0.30244103  1  -1.241909  0  -0.234777  -0.594497  0  2.360339  0
O  O98  1  0.36007505  0.19598510  0.19753263  1  -1.242419  0  -0.234938  -0.594389  0  2.360235  0
O  O99  1  0.63995795  0.80401584  0.80247436  1  -1.242839  0  -0.235071  -0.594501  0  2.360408  0
O  O100  1  0.13999051  0.69598227  0.80248412  1  -1.242883  0  -0.235255  -0.594895  0  2.359376  0
O  O101  1  0.86002455  0.30401998  0.19751481  1  -1.242477  0  -0.235203  -0.595003  0  2.359333  0
O  O102  1  0.85998998  0.30409284  0.30242666  1  -1.241836  0  -0.234963  -0.594716  0  2.359075  0
O  O103  1  0.13998772  0.69590547  0.69757611  1  -1.241734  0  -0.234899  -0.594618  0  2.35917  0
O  O104  1  0.47001756  0.71490383  0.74999455  1  -1.396978  0  -0.446733  -0.996339  0  2.205348  0
O  O105  1  0.52999002  0.28510193  0.25000707  1  -1.398503  0  -0.446833  -0.996402  0  2.205234  0
O  O106  1  0.96999693  0.78508486  0.74999010  1  -1.397728  0  -0.446694  -0.996577  0  2.205498  0
O  O107  1  0.03002410  0.21491914  0.25001037  1  -1.397421  0  -0.446702  -0.996735  0  2.205571  0
F  F108  1  0.23192547  0.47142418  0.52244872  1  -0.61029  0  -0.095166  -0.116899  0  1.369623  0
F  F109  1  0.76800290  0.52860041  0.47755252  1  -0.610001  0  -0.095187  -0.116972  0  1.369385  0
F  F110  1  0.76725191  0.52830497  0.02221771  1  -0.607751  0  -0.094974  -0.116603  0  1.369829  0
F  F111  1  0.23273625  0.47171962  0.97778698  1  -0.607452  0  -0.094934  -0.116545  0  1.369511  0
F  F112  1  0.73283404  0.02824266  0.97782474  1  -0.606987  0  -0.09495  -0.116537  0  1.369601  0
F  F113  1  0.26716907  0.97173550  0.02218993  1  -0.607484  0  -0.09493  -0.116638  0  1.369653  0
F  F114  1  0.26764669  0.97155664  0.47768509  1  -0.609532  0  -0.094834  -0.116504  0  1.36907  0
F  F115  1  0.73234147  0.02844386  0.52231155  1  -0.609423  0  -0.094911  -0.116535  0  1.369235  0
F  F116  1  0.70501973  0.41574623  0.46601715  1  -0.617157  0  -0.088098  -0.118227  0  1.411535  0
F  F117  1  0.29480998  0.58435412  0.53392694  1  -0.617037  0  -0.088425  -0.118471  0  1.410853  0
F  F118  1  0.29415618  0.58466721  0.96626703  1  -0.61814  0  -0.088359  -0.118311  0  1.410272  0
F  F119  1  0.70576023  0.41537402  0.03376106  1  -0.617019  0  -0.088351  -0.118332  0  1.410318  0
F  F120  1  0.20582152  0.08466611  0.03375668  1  -0.617388  0  -0.088427  -0.118506  0  1.41059  0
F  F121  1  0.79415918  0.91531030  0.96626220  1  -0.617763  0  -0.088343  -0.118294  0  1.410495  0
F  F122  1  0.79452889  0.91546933  0.53384386  1  -0.617239  0  -0.088322  -0.118292  0  1.411256  0
F  F123  1  0.20546674  0.08453817  0.46615507  1  -0.61716  0  -0.088352  -0.118303  0  1.411131  0
F  F124  1  0.31645628  0.65489044  0.61336810  1  -0.615554  0  -0.076701  -0.097706  0  1.40293  0
F  F125  1  0.68338986  0.34522611  0.38656409  1  -0.615492  0  -0.076701  -0.097699  0  1.40286  0
F  F126  1  0.68408322  0.34479395  0.11313478  1  -0.615949  0  -0.076846  -0.097789  0  1.402312  0
F  F127  1  0.31588551  0.65523152  0.88688372  1  -0.616035  0  -0.076914  -0.09795  0  1.402558  0
F  F128  1  0.81588300  0.84474680  0.88688405  1  -0.616014  0  -0.076964  -0.09802  0  1.402544  0
F  F129  1  0.18413505  0.15524494  0.11312907  1  -0.616031  0  -0.076961  -0.097904  0  1.402528  0
F  F130  1  0.18395298  0.15517127  0.38679735  1  -0.615476  0  -0.077147  -0.0982  0  1.40188  0
F  F131  1  0.81608450  0.84484675  0.61321117  1  -0.615768  0  -0.077277  -0.098333  0  1.401861  0
