# generated using pymatgen
data_ZnH11C17NO4
_symmetry_space_group_name_H-M   'P 1'
_cell_length_a   13.97746025
_cell_length_b   14.78607965
_cell_length_c   16.19446518
_cell_angle_alpha   89.83744167
_cell_angle_beta   90.12644511
_cell_angle_gamma   97.90924261
_symmetry_Int_Tables_number   1
_chemical_formula_structural   ZnH11C17NO4
_chemical_formula_sum   'Zn2 H22 C34 N2 O8'
_cell_volume   3315.08250136
_cell_formula_units_Z   2
loop_
 _symmetry_equiv_pos_site_id
 _symmetry_equiv_pos_as_xyz
  1  'x, y, z'
loop_
 _atom_site_type_symbol
 _atom_site_label
 _atom_site_symmetry_multiplicity
 _atom_site_fract_x
 _atom_site_fract_y
 _atom_site_fract_z
 _atom_site_occupancy
 _atom_site_pbe_bader_charge
 _atom_site_pbe_bader_spin_density
 _atom_site_pbe_cm5_charge
 _atom_site_pbe_ddec_charge
 _atom_site_pbe_ddec_spin_density
 _atom_site_pbe_ddec_sum_bond_order
 _atom_site_pbe_magmom
Zn  Zn0  1  0.49911811  0.40450965  0.50033804  1  1.322408  0  0.682186  0.890717  0  2.424949  0
Zn  Zn1  1  0.50088317  0.59549494  0.49963665  1  1.323889  0  0.682157  0.890662  0  2.42493  0
H  H2  1  0.97225010  0.39523192  0.50031500  1  0.10203  0  0.118129  0.119925  0  0.959516  0
H  H3  1  0.56144915  0.15544731  0.18357814  1  0.021407  0  0.089816  0.116473  0  0.99669  0
H  H4  1  0.49475702  0.06311905  0.12939176  1  0.025022  0  0.08866  0.11416  0  1.001582  0
H  H5  1  0.55906952  0.00641681  0.26116695  1  0.025708  0  0.092781  0.079838  0  0.97  0
H  H6  1  0.43148529  0.99263107  0.26251364  1  0.024175  0  0.092378  0.078683  0  0.970952  0
H  H7  1  0.43725493  0.13930221  0.34295295  1  0.102714  0  0.109165  0.116239  0  0.950145  0
H  H8  1  0.56331432  0.15308497  0.34137280  1  0.045828  0  0.10892  0.115006  0  0.953362  0
H  H9  1  0.43839897  0.84440768  0.81641414  1  0.022254  0  0.090032  0.116881  0  0.996107  0
H  H10  1  0.56655249  0.85892665  0.81524066  1  0.031368  0  0.090637  0.117413  0  0.996177  0
H  H11  1  0.50488785  0.93681734  0.87063962  1  0.024602  0  0.088785  0.114216  0  1.001501  0
H  H12  1  0.56815687  0.00743428  0.73758282  1  0.026126  0  0.092287  0.078321  0  0.972339  0
H  H13  1  0.02774622  0.60467030  0.49965381  1  0.103387  0  0.118236  0.1201  0  0.959925  0
H  H14  1  0.44056972  0.99341786  0.73882706  1  0.026447  0  0.092678  0.0799  0  0.970341  0
H  H15  1  0.43670345  0.84681192  0.65860161  1  0.047337  0  0.109041  0.115359  0  0.953303  0
H  H16  1  0.56276876  0.86081105  0.65711902  1  0.104656  0  0.109212  0.116576  0  0.950159  0
H  H17  1  0.49086948  0.35302011  0.07683991  1  0.071752  0  0.108  0.109975  0  0.990296  0
H  H18  1  0.50909702  0.64703272  0.92313894  1  0.074182  0  0.107972  0.109989  0  0.990566  0
H  H19  1  0.49157649  0.91301989  0.36854330  1  0.111663  0  0.121513  0.127113  0  0.993613  0
H  H20  1  0.50831075  0.08698203  0.63149552  1  0.110866  0  0.121765  0.127386  0  0.993171  0
H  H21  1  0.49082249  0.35365171  0.92287777  1  0.069817  0  0.109255  0.112231  0  0.984138  0
H  H22  1  0.50914064  0.64640247  0.07710786  1  0.069937  0  0.109167  0.11208  0  0.984369  0
H  H23  1  0.43330830  0.14115223  0.18483311  1  0.032099  0  0.090879  0.117813  0  0.996728  0
C  C24  1  0.49982636  0.49857630  0.33901861  1  1.715622  0  0.216959  0.668736  0  4.241477  0
C  C25  1  0.49521874  0.95284861  0.42515907  1  -0.033725  0  -0.062459  -0.148547  0  3.910988  0
C  C26  1  0.50732207  0.18941418  0.49994074  1  0.816847  0  0.244584  0.30396  0  3.937146  0
C  C27  1  0.49263423  0.81057517  0.50008027  1  0.817548  0  0.244921  0.304332  0  3.936632  0
C  C28  1  0.31198250  0.46841813  0.50004185  1  1.656484  0  0.215184  0.661282  0  4.244833  0
C  C29  1  0.68802310  0.53155579  0.49993541  1  1.655524  0  0.215342  0.66143  0  4.245228  0
C  C30  1  0.79232719  0.54037437  0.49997358  1  0.155832  0  -0.039534  -0.174019  0  3.935797  0
C  C31  1  0.20768137  0.45957978  0.50000003  1  0.154353  0  -0.039294  -0.173477  0  3.935641  0
C  C32  1  0.97994282  0.53954772  0.49989821  1  0.017684  0  -0.061821  -0.046355  0  4.052089  0
C  C33  1  0.02005090  0.46036676  0.50005760  1  0.117485  0  -0.061476  -0.045747  0  4.051458  0
C  C34  1  0.12023690  0.45899395  0.50007225  1  -0.405448  0  -0.038186  -0.018817  0  4.16545  0
C  C35  1  0.50017833  0.50145287  0.66095108  1  1.715176  0  0.21694  0.668976  0  4.241362  0
C  C36  1  0.87976467  0.54093560  0.49990266  1  -0.406705  0  -0.038025  -0.018175  0  4.165207  0
C  C37  1  0.49480733  0.41739172  0.95711683  1  0.076084  0  -0.078146  -0.117972  0  3.959744  0
C  C38  1  0.50515984  0.58266589  0.04286386  1  0.076982  0  -0.077881  -0.117493  0  3.960026  0
C  C39  1  0.50003076  0.50039093  0.91287549  1  0.119813  0  0.003996  0.135303  0  4.10528  0
C  C40  1  0.49995260  0.49966472  0.08710460  1  0.118415  0  0.003731  0.134829  0  4.105772  0
C  C41  1  0.50515245  0.58299704  0.95726678  1  -0.111633  0  -0.079163  -0.119873  0  3.962977  0
C  C42  1  0.49482079  0.41705788  0.04271330  1  -0.108056  0  -0.07898  -0.119424  0  3.96255  0
C  C43  1  0.50007805  0.50077145  0.82548586  1  -0.587939  0  -0.037317  -0.064536  0  4.113249  0
C  C44  1  0.49991705  0.49927609  0.17448809  1  -0.588835  0  -0.037277  -0.064173  0  4.113664  0
C  C45  1  0.49919604  0.10033272  0.34214028  1  -0.055244  0  -0.150727  -0.20733  0  3.962358  0
C  C46  1  0.49991394  0.49881750  0.24973926  1  0.212467  0  -0.045785  -0.175454  0  3.965465  0
C  C47  1  0.49640030  0.04424322  0.26287703  1  -0.011919  0  -0.161448  -0.086454  0  3.977638  0
C  C48  1  0.49648685  0.10426974  0.18588465  1  -0.054476  0  -0.24  -0.356636  0  3.97475  0
C  C49  1  0.50073248  0.89966261  0.65788810  1  -0.058538  0  -0.150885  -0.208145  0  3.963497  0
C  C50  1  0.50332834  0.95571412  0.73716487  1  -0.014939  0  -0.161383  -0.086568  0  3.980067  0
C  C51  1  0.50328500  0.89568443  0.81415667  1  -0.054119  0  -0.239965  -0.356313  0  3.973407  0
C  C52  1  0.50009552  0.50122534  0.75022977  1  0.211731  0  -0.045782  -0.175176  0  3.965161  0
C  C53  1  0.49948928  0.04745916  0.42182551  1  0.105398  0  0.018032  0.108674  0  3.927231  0
C  C54  1  0.50043199  0.95253545  0.57820842  1  0.105438  0  0.018123  0.109158  0  3.926603  0
C  C55  1  0.50409409  0.09304306  0.49878427  1  0.099401  0  0.017912  0.004333  0  4.068759  0
C  C56  1  0.49582561  0.90695564  0.50125088  1  0.099121  0  0.017962  0.004198  0  4.067509  0
C  C57  1  0.50467961  0.04715610  0.57487296  1  -0.033352  0  -0.062681  -0.149023  0  3.910739  0
N  N58  1  0.49091049  0.73190624  0.49905470  1  -1.155554  0  -0.268594  -0.277894  0  3.099615  0
N  N59  1  0.50905653  0.26809340  0.50095641  1  -1.155013  0  -0.268238  -0.277501  0  3.099189  0
O  O60  1  0.49772168  0.42098795  0.37396856  1  -1.137405  0  -0.317297  -0.548902  0  2.252238  0
O  O61  1  0.50220999  0.57903056  0.62600727  1  -1.138319  0  -0.31726  -0.548892  0  2.251879  0
O  O62  1  0.50174430  0.57593533  0.37390851  1  -1.141113  0  -0.317286  -0.548779  0  2.254959  0
O  O63  1  0.49833210  0.42409494  0.62606803  1  -1.140939  0  -0.317388  -0.549175  0  2.25505  0
O  O64  1  0.35074830  0.39532128  0.50000646  1  -1.14036  0  -0.316024  -0.540634  0  2.238527  0
O  O65  1  0.64925938  0.60464654  0.50002454  1  -1.139801  0  -0.316037  -0.540695  0  2.23912  0
O  O66  1  0.35494765  0.55027185  0.50015898  1  -1.146981  0  -0.315484  -0.550034  0  2.26933  0
O  O67  1  0.64505343  0.44969587  0.49976395  1  -1.146665  0  -0.315516  -0.550054  0  2.269213  0
