# generated using pymatgen
data_Al2H7C20N4ClO18
_symmetry_space_group_name_H-M   'P 1'
_cell_length_a   6.63995374
_cell_length_b   11.18440686
_cell_length_c   10.94687441
_cell_angle_alpha   82.04999517
_cell_angle_beta   74.23463865
_cell_angle_gamma   72.29029110
_symmetry_Int_Tables_number   1
_chemical_formula_structural   Al2H7C20N4ClO18
_chemical_formula_sum   'Al2 H7 C20 N4 Cl1 O18'
_cell_volume   743.92483323
_cell_formula_units_Z   1
loop_
 _symmetry_equiv_pos_site_id
 _symmetry_equiv_pos_as_xyz
  1  'x, y, z'
loop_
 _atom_site_type_symbol
 _atom_site_label
 _atom_site_symmetry_multiplicity
 _atom_site_fract_x
 _atom_site_fract_y
 _atom_site_fract_z
 _atom_site_occupancy
 _atom_site_pbe_bader_charge
 _atom_site_pbe_bader_spin_density
 _atom_site_pbe_cm5_charge
 _atom_site_pbe_ddec_charge
 _atom_site_pbe_ddec_spin_density
 _atom_site_pbe_ddec_sum_bond_order
 _atom_site_pbe_magmom
Al  Al0  1  0.49091856  0.50359154  0.49986009  1  2.50244  0  0.392486  1.644591  0  2.576323  0
Al  Al1  1  0.99207029  0.50771633  0.49412646  1  2.499372  0  0.395587  1.641551  0  2.564608  0
H  H2  1  0.26518847  0.36125397  0.59027123  1  0.647407  0  0.338393  0.420793  0  0.890347  0
H  H3  1  0.76006510  0.58998595  0.34956705  1  0.641558  0  0.338713  0.417196  0  0.894009  0
H  H4  1  0.10251441  0.58715157  0.08811731  1  0.104636  0  0.104032  0.110913  0  1.033308  0
H  H5  1  0.75579128  0.43197097  0.13839645  1  0.112546  0  0.111523  0.12918  0  0.994024  0
H  H6  1  0.25066267  0.57533899  0.85297105  1  0.128698  0  0.112331  0.121764  0  0.989902  0
H  H7  1  0.24091192  0.23360430  0.31566850  1  0.141554  0  0.130632  0.151238  0  0.981749  0
H  H8  1  0.45840515  0.76564700  0.35919273  1  0.14792  0  0.131198  0.136519  0  1.041337  0
C  C9  1  0.85930388  0.27945524  0.47900485  1  1.604169  0  0.270589  0.64087  0  4.109852  0
C  C10  1  0.65446825  0.49538824  0.72313359  1  1.607488  0  0.277061  0.666121  0  4.069861  0
C  C11  1  0.12692587  0.72865771  0.51970690  1  1.688291  0  0.273568  0.636781  0  4.131932  0
C  C12  1  0.33828233  0.51735238  0.26695803  1  1.551756  0  0.271378  0.653456  0  4.069102  0
C  C13  1  0.58327161  0.49666386  0.86397698  1  0.015604  0  -0.007691  -0.089388  0  3.925744  0
C  C14  1  0.42098977  0.51155423  0.12691647  1  -0.000848  0  -0.012339  -0.023479  0  3.98009  0
C  C15  1  0.72632378  0.45437042  0.94519309  1  0.02963  0  0.026976  0.140767  0  4.01196  0
C  C16  1  0.27644867  0.55000775  0.04754734  1  0.078179  0  -0.084073  -0.100594  0  3.97213  0
C  C17  1  0.64528486  0.46487140  0.07590230  1  -0.016584  0  -0.085167  -0.159712  0  3.956859  0
C  C18  1  0.35899103  0.54388193  0.91705362  1  -0.037348  0  -0.071138  -0.064853  0  3.949677  0
C  C19  1  0.92991538  0.13779117  0.48327427  1  0.122083  0  0.016792  -0.089473  0  3.854015  0
C  C20  1  0.13826764  0.06986362  0.41204507  1  0.049399  0  0.027324  0.103727  0  3.906386  0
C  C21  1  0.79490927  0.07140227  0.56345564  1  0.266932  0  0.102436  0.030561  0  3.893858  0
C  C22  1  0.28478574  0.13148254  0.32725833  1  0.046563  0  -0.058613  -0.136529  0  3.863122  0
C  C23  1  0.48339988  0.06276962  0.25992048  1  0.289829  0  0.096221  0.045821  0  3.942666  0
C  C24  1  0.06206536  0.87053358  0.51233031  1  0.065519  0  0.025702  -0.063678  0  3.860386  0
C  C25  1  0.86365047  0.93929454  0.58189596  1  0.175536  0  0.095093  0.0092  0  3.903516  0
C  C26  1  0.20125022  0.93496666  0.42452058  1  0.040215  0  0.017647  0.077572  0  3.921363  0
C  C27  1  0.40496689  0.86756851  0.35080182  1  0.102624  0  -0.050854  -0.11233  0  3.87391  0
C  C28  1  0.54439238  0.92985651  0.27198480  1  0.19771  0  0.090304  0.027153  0  3.931763  0
N  N29  1  0.72833573  0.87237894  0.68077277  1  0.399148  0  0.06736  0.518561  0  4.214609  0
N  N30  1  0.58033141  0.14200774  0.64099655  1  0.42828  0  0.063168  0.503556  0  4.248104  0
N  N31  1  0.62511310  0.13141770  0.16881396  1  0.430627  0  0.062889  0.509942  0  4.253249  0
N  N32  1  0.76306920  0.85362181  0.21055732  1  0.395652  0  0.067302  0.523859  0  4.197576  0
Cl  Cl33  1  0.00012598  0.38055559  0.89039107  1  -0.174412  0  0.020617  -0.045465  0  1.556989  0
O  O34  1  0.66764008  0.33236105  0.46683033  1  -1.240666  0  -0.225463  -0.573019  0  2.381491  0
O  O35  1  0.83683870  0.51479708  0.66695607  1  -1.252933  0  -0.229411  -0.587604  0  2.390424  0
O  O36  1  0.99412005  0.68056387  0.49441938  1  -1.235079  0  -0.224756  -0.563288  0  2.329446  0
O  O37  1  0.46511201  0.53485127  0.32775815  1  -1.27082  0  -0.239163  -0.608695  0  2.374333  0
O  O38  1  0.31174391  0.67264167  0.54043014  1  -1.241579  0  -0.217794  -0.548249  0  2.342334  0
O  O39  1  0.14797678  0.50464826  0.31719525  1  -1.260408  0  -0.236442  -0.596599  0  2.330347  0
O  O40  1  0.99667296  0.33168016  0.49150103  1  -1.23985  0  -0.220033  -0.563178  0  2.35246  0
O  O41  1  0.52183379  0.47659337  0.66764760  1  -1.269042  0  -0.235353  -0.600982  0  2.369951  0
O  O42  1  0.24888833  0.44396636  0.54578505  1  -1.449284  0  -0.452015  -0.997541  0  2.219382  0
O  O43  1  0.73537635  0.56468629  0.43992553  1  -1.445222  0  -0.452461  -0.993928  0  2.19884  0
O  O44  1  0.82563165  0.78985435  0.74834699  1  -0.400333  0  -0.097533  -0.281333  0  1.889162  0
O  O45  1  0.53017531  0.90465026  0.68828140  1  -0.422992  0  -0.114401  -0.301643  0  1.886175  0
O  O46  1  0.42129732  0.16493735  0.59506377  1  -0.427268  0  -0.087492  -0.285803  0  1.989548  0
O  O47  1  0.58165382  0.17340292  0.74429632  1  -0.391864  0  -0.090558  -0.266476  0  1.885746  0
O  O48  1  0.70071354  0.19805327  0.21458093  1  -0.427425  0  -0.106612  -0.299968  0  1.936524  0
O  O49  1  0.64984564  0.11894795  0.05503150  1  -0.412951  0  -0.106874  -0.29007  0  1.880077  0
O  O50  1  0.78380935  0.74296521  0.19252892  1  -0.456955  0  -0.104318  -0.307982  0  1.947676  0
O  O51  1  0.91283195  0.90418549  0.18452766  1  -0.437502  0  -0.116769  -0.309833  0  1.889824  0
