# generated using pymatgen
data_MnH15C24N2O5
_symmetry_space_group_name_H-M   'P 1'
_cell_length_a   9.33646509
_cell_length_b   10.06615726
_cell_length_c   11.89001000
_cell_angle_alpha   112.63988775
_cell_angle_beta   89.99964755
_cell_angle_gamma   90.00084753
_symmetry_Int_Tables_number   1
_chemical_formula_structural   MnH15C24N2O5
_chemical_formula_sum   'Mn2 H30 C48 N4 O10'
_cell_volume   1031.34278137
_cell_formula_units_Z   2
loop_
 _symmetry_equiv_pos_site_id
 _symmetry_equiv_pos_as_xyz
  1  'x, y, z'
loop_
 _atom_site_type_symbol
 _atom_site_label
 _atom_site_symmetry_multiplicity
 _atom_site_fract_x
 _atom_site_fract_y
 _atom_site_fract_z
 _atom_site_occupancy
 _atom_site_hle17_ddec_charge
 _atom_site_hle17_ddec_spin_density
 _atom_site_hle17_ddec_sum_bond_order
 _atom_site_hle17_magmom
 _atom_site_hse06_10hf_ddec_charge
 _atom_site_hse06_10hf_ddec_spin_density
 _atom_site_hse06_10hf_ddec_sum_bond_order
 _atom_site_hse06_10hf_magmom
 _atom_site_hse06_ddec_charge
 _atom_site_hse06_ddec_spin_density
 _atom_site_hse06_ddec_sum_bond_order
 _atom_site_hse06_magmom
 _atom_site_pbe_cm5_charge
 _atom_site_pbe_ddec_charge
 _atom_site_pbe_ddec_spin_density
 _atom_site_pbe_ddec_sum_bond_order
 _atom_site_pbe_magmom
Mn  Mn0  1  0.04283353  0.07403590  0.86316924  1  1.086737  -4.788032  1.848428  -4.651  0.916898  -4.697481  2.35981  -4.49  0.978082  -4.757745  2.286664  -4.571  0.608193  0.871833  -4.626359  2.415706  -4.398
Mn  Mn1  1  0.04283248  0.92597148  0.13682592  1  1.086725  4.788027  1.848408  4.651  0.91693  4.697484  2.359748  4.49  0.978095  4.757743  2.286613  4.571  0.608236  0.871861  4.626352  2.415642  4.398
H  H2  1  0.95268860  0.87718809  0.58285626  1  0.08058  -0.000103  0.916423  0.0  0.092651  -0.000647  0.973152  0.0  0.09517  -0.000429  0.970609  0.0  0.123016  0.09165  -0.000737  0.973936  -0.001
H  H3  1  0.95269288  0.12279394  0.41713804  1  0.080589  0.000108  0.916391  0.0  0.092671  0.000647  0.97313  0.0  0.095193  0.000426  0.970581  0.0  0.123015  0.091674  0.000737  0.973917  0.001
H  H4  1  0.07706685  0.75190497  0.38133751  1  0.11026  -0.000449  0.961976  0.0  0.120477  -0.00046  1.02052  0.0  0.122867  -0.000436  1.020847  0.0  0.110132  0.118707  -0.000498  1.020319  0.0
H  H5  1  0.07706404  0.24808350  0.61866057  1  0.110238  0.000455  0.961828  0.0  0.120402  0.00046  1.020444  0.0  0.122797  0.000436  1.020767  0.0  0.110069  0.118633  0.000498  1.020249  0.0
H  H6  1  0.34362708  0.75206469  0.37407357  1  0.113295  9.7e-05  0.914562  0.0  0.125308  -2.5e-05  0.969817  0.0  0.128645  -1.2e-05  0.967355  0.0  0.116235  0.123054  -2.5e-05  0.971386  0.0
H  H7  1  0.34362849  0.24794031  0.62592694  1  0.113256  -0.00011  0.914566  0.0  0.125276  2.6e-05  0.969823  0.0  0.128609  1.2e-05  0.967365  0.0  0.11623  0.12304  2.5e-05  0.971376  0.0
H  H8  1  0.57736030  0.83552476  0.48784888  1  0.099141  -7.1e-05  0.951989  0.0  0.10926  -6.2e-05  1.014197  0.0  0.111892  -5.5e-05  1.013493  0.0  0.103886  0.107112  -0.000157  1.015174  0.0
H  H9  1  0.57735914  0.16447694  0.51215280  1  0.099086  7.9e-05  0.951977  0.0  0.109267  6.2e-05  1.014129  0.0  0.111898  5.4e-05  1.013427  0.0  0.103887  0.107119  0.000157  1.015112  0.0
H  H10  1  0.70485537  0.97534800  0.68279607  1  0.120693  0.000273  0.949588  0.0  0.128905  0.000276  1.012347  0.0  0.132744  0.000326  1.009726  0.0  0.11086  0.126667  0.0003  1.013335  0.0
H  H11  1  0.70485458  0.02464896  0.31720766  1  0.120647  -0.000287  0.949599  0.0  0.128896  -0.000276  1.012322  0.0  0.13274  -0.000326  1.009692  0.0  0.110877  0.126664  -0.0003  1.013302  0.0
H  H12  1  0.69341516  0.13001117  0.90400931  1  0.123901  0.000663  0.955589  0.0  0.133204  0.000545  1.01472  0.0  0.136455  0.000538  1.012351  0.0  0.115821  0.1301  0.000268  1.017791  0.0
H  H13  1  0.69341568  0.86998887  0.09599632  1  0.123812  -0.000665  0.955724  0.0  0.133119  -0.000544  1.01485  0.0  0.136363  -0.000538  1.012491  0.0  0.115772  0.130015  -0.000268  1.01792  0.0
H  H14  1  0.27321621  0.21845070  0.07242267  1  0.083598  0.000308  0.946049  0.0  0.090955  -1.1e-05  1.012133  0.0  0.093974  0.000101  1.008626  0.0  0.119753  0.088676  -0.000141  1.014947  0.0
H  H15  1  0.27322376  0.78153181  0.92757757  1  0.083603  -0.0003  0.945973  0.0  0.090911  1.1e-05  1.012119  0.0  0.093924  -0.000102  1.008627  0.0  0.119713  0.088634  0.000141  1.014928  0.0
H  H16  1  0.02627219  0.57010156  0.90024508  1  0.124998  -0.000284  0.945544  0.0  0.130169  -0.000394  1.012469  0.0  0.134866  -0.000342  1.008732  0.0  0.111473  0.126528  -0.000418  1.015607  0.0
H  H17  1  0.02627101  0.42991529  0.09975830  1  0.124957  0.000281  0.945634  0.0  0.130147  0.000395  1.012552  0.0  0.134845  0.000341  1.008815  0.0  0.111459  0.126507  0.000418  1.015691  0.0
H  H18  1  0.69122276  0.72919285  0.73764596  1  0.109357  7.9e-05  0.986217  0.0  0.113825  5.3e-05  1.060737  0.0  0.117724  9.3e-05  1.058136  0.0  0.102803  0.111063  3.4e-05  1.062398  0.0
H  H19  1  0.69121669  0.27081040  0.26235315  1  0.109378  -8.9e-05  0.986156  0.0  0.113806  -5.2e-05  1.060728  0.0  0.117701  -9.3e-05  1.058136  0.0  0.1028  0.111046  -3.3e-05  1.062394  0.0
H  H20  1  0.68726388  0.28472316  0.70581202  1  0.117627  3.3e-05  0.947532  0.0  0.12596  1e-05  1.013509  0.0  0.130524  3.8e-05  1.009687  0.0  0.105991  0.122302  -5.1e-05  1.016848  0.0
H  H21  1  0.68727108  0.71528433  0.29419354  1  0.117612  -6.1e-05  0.947499  0.0  0.125935  -1e-05  1.013511  0.0  0.130496  -3.7e-05  1.009687  0.0  0.105989  0.122279  5.1e-05  1.016842  0.0
H  H22  1  0.55031165  0.62784890  0.57901438  1  0.060083  1.2e-05  0.952636  0.0  0.070977  1.6e-05  1.020387  0.0  0.071452  1.2e-05  1.020053  0.0  0.100637  0.070584  2.6e-05  1.02035  0.0
H  H23  1  0.55030916  0.37214921  0.42098289  1  0.060052  -5e-06  0.952618  0.0  0.070958  -1.7e-05  1.020368  0.0  0.071435  -1.2e-05  1.020039  0.0  0.100608  0.070564  -2.6e-05  1.020333  0.0
H  H24  1  0.45482247  0.67922172  0.71894471  1  0.054567  2.8e-05  0.936324  0.0  0.068533  2.6e-05  1.002739  0.0  0.068491  2.6e-05  1.002676  0.0  0.100581  0.068004  2.6e-05  1.00338  0.0
H  H25  1  0.45481920  0.32078048  0.28105015  1  0.054548  -9e-06  0.936337  0.0  0.068523  -2.6e-05  1.002744  0.0  0.068482  -2.6e-05  1.002682  0.0  0.100578  0.067992  -2.6e-05  1.003392  0.0
H  H26  1  0.20716094  0.63837965  0.72374809  1  0.093358  4.8e-05  0.948058  0.0  0.105699  9.8e-05  1.008283  0.0  0.107849  8.2e-05  1.007807  0.0  0.102271  0.103858  0.000133  1.00935  0.0
H  H27  1  0.20715943  0.36161381  0.27624931  1  0.093303  -3.8e-05  0.948134  0.0  0.105657  -9.8e-05  1.008353  0.0  0.107806  -8.1e-05  1.007878  0.0  0.102298  0.103816  -0.000133  1.009425  0.0
H  H28  1  0.97708498  0.56808792  0.61230287  1  0.084503  2.3e-05  0.981066  0.0  0.09446  3.1e-05  1.043064  0.0  0.095637  3e-05  1.044643  0.0  0.096139  0.093512  4.4e-05  1.041995  0.0
H  H29  1  0.97708156  0.43190089  0.38769520  1  0.08454  -3.6e-05  0.981041  0.0  0.094503  -3.1e-05  1.04302  0.0  0.095681  -3e-05  1.044597  0.0  0.096163  0.093557  -4.4e-05  1.041954  0.0
H  H30  1  0.54191875  0.25180770  0.08983578  1  0.093919  -0.000249  0.991425  0.0  0.103575  -0.000175  1.053865  0.0  0.105827  -0.000149  1.054658  0.0  0.099113  0.10183  -0.000314  1.053786  0.0
H  H31  1  0.54192697  0.74818060  0.91017263  1  0.093973  0.000246  0.991486  0.0  0.103611  0.000175  1.053936  0.0  0.105867  0.000149  1.054719  0.0  0.099085  0.101864  0.000314  1.053855  0.0
C  C32  1  0.06932432  0.87673054  0.57601698  1  0.14982  -0.004325  3.697771  -0.004  0.117279  -0.007296  3.958085  -0.006  0.126088  -0.005943  3.974091  -0.005  0.064885  0.110525  -0.009371  3.947469  -0.008
C  C33  1  0.06932534  0.12326105  0.42397963  1  0.149662  0.004355  3.697531  0.004  0.117083  0.007295  3.957886  0.006  0.12589  0.005946  3.973892  0.005  0.064776  0.110323  0.009372  3.947284  0.008
C  C34  1  0.13902939  0.80649469  0.46374558  1  -0.107086  0.00124  3.72323  0.001  -0.120961  0.000575  3.978626  0.001  -0.127314  0.001053  3.99996  0.001  -0.077125  -0.116899  8e-05  3.965824  0.0
C  C35  1  0.13903492  0.19350108  0.53625206  1  -0.106996  -0.001321  3.722984  -0.001  -0.120797  -0.000571  3.978393  -0.001  -0.127154  -0.001059  3.999722  -0.001  -0.076983  -0.116735  -8e-05  3.965611  0.0
C  C36  1  0.28691086  0.80707218  0.45964173  1  -0.032458  -0.003708  3.660074  -0.003  -0.062129  -0.005677  3.917446  -0.004  -0.058658  -0.004771  3.933882  -0.004  -0.056586  -0.064259  -0.007538  3.907187  -0.006
C  C37  1  0.28691314  0.19293097  0.54036014  1  -0.032304  0.003805  3.659917  0.003  -0.062002  0.005673  3.917279  0.004  -0.058526  0.004777  3.933709  0.004  -0.056571  -0.064146  0.007537  3.907026  0.006
C  C38  1  0.36496946  0.87953147  0.56790453  1  0.019656  0.000679  3.800668  0.001  0.035152  0.000318  4.035077  0.0  0.032382  0.000632  4.059947  0.001  -0.003039  0.036796  2.2e-05  4.018582  0.0
C  C39  1  0.36497358  0.12047166  0.43209611  1  0.019476  -0.000732  3.800602  -0.001  0.034996  -0.000314  4.034998  0.0  0.032224  -0.000641  4.059862  -0.001  -0.002996  0.036644  -2.1e-05  4.018508  0.0
C  C40  1  0.51816133  0.88949386  0.57229369  1  -0.110083  0.000684  3.764922  0.0  -0.131916  0.000493  4.022707  0.0  -0.135062  0.000701  4.046014  0.0  -0.08598  -0.129047  0.000383  4.006925  0.0
C  C41  1  0.51815997  0.11050381  0.42770359  1  -0.110075  -0.000721  3.765258  -0.001  -0.131984  -0.000493  4.023086  0.0  -0.135128  -0.000699  4.046392  0.0  -0.086054  -0.129122  -0.000382  4.007314  0.0
C  C42  1  0.58850399  0.96530069  0.67873573  1  -0.102352  -4.6e-05  3.725629  0.0  -0.124458  0.000194  3.979423  0.0  -0.127197  0.000132  4.000593  0.0  -0.082296  -0.123452  0.00012  3.965485  0.0
C  C43  1  0.58850118  0.03470546  0.32127240  1  -0.102217  0.000104  3.725635  0.0  -0.124395  -0.000195  3.979406  0.0  -0.127134  -0.000132  4.000576  0.0  -0.082301  -0.123393  -0.00012  3.965468  0.0
C  C44  1  0.51050517  0.03627315  0.78967163  1  0.024526  0.001518  3.787993  0.001  0.042839  0.000883  4.01829  0.001  0.0396  0.001366  4.042969  0.001  -0.001674  0.045261  0.00058  4.002521  0.001
C  C45  1  0.51050307  0.96372657  0.21032804  1  0.024554  -0.001503  3.787979  -0.001  0.043008  -0.000883  4.018108  -0.001  0.039767  -0.001366  4.042786  -0.001  -0.001618  0.04543  -0.00058  4.002339  -0.001
C  C46  1  0.57736045  0.11872422  0.90140758  1  -0.027851  -0.00567  3.648705  -0.005  -0.054596  -0.007985  3.892824  -0.006  -0.050704  -0.006763  3.909587  -0.005  -0.056997  -0.057742  -0.010675  3.88291  -0.008
C  C47  1  0.57737291  0.88127963  0.09859984  1  -0.027707  0.005615  3.648402  0.005  -0.054508  0.007989  3.892471  0.006  -0.050607  0.006763  3.909233  0.005  -0.056978  -0.057659  0.010681  3.882556  0.008
C  C48  1  0.34381277  0.16844301  0.99430431  1  0.159653  -0.006366  3.674983  -0.006  0.124851  -0.009329  3.931277  -0.008  0.134279  -0.007834  3.946963  -0.007  0.065056  0.118569  -0.011343  3.920997  -0.009
C  C49  1  0.34382089  0.83154907  0.00569703  1  0.159733  0.006305  3.675355  0.006  0.12495  0.009323  3.931633  0.008  0.134373  0.007836  3.947325  0.007  0.065115  0.118662  0.011338  3.921354  0.009
C  C50  1  0.35888239  0.02611986  0.78891406  1  0.123879  -0.002926  3.76446  -0.003  0.115833  -0.005185  4.001453  -0.005  0.120284  -0.004264  4.023951  -0.004  0.120133  0.112317  -0.007433  3.986286  -0.006
C  C51  1  0.35888580  0.97388535  0.21108896  1  0.123768  0.002896  3.764448  0.003  0.115649  0.005186  4.001435  0.005  0.120099  0.004262  4.023931  0.004  0.1201  0.112135  0.007434  3.986264  0.006
C  C52  1  0.28509995  0.94795048  0.67652287  1  0.124869  -0.00177  3.765654  -0.002  0.119058  -0.004315  4.005395  -0.004  0.122982  -0.003231  4.027977  -0.003  0.118878  0.116791  -0.005093  3.989645  -0.004
C  C53  1  0.28510383  0.05204726  0.32347387  1  0.125015  0.001821  3.765793  0.002  0.119235  0.004311  4.005495  0.004  0.123164  0.003239  4.028072  0.003  0.118973  0.116968  0.005092  3.989741  0.004
C  C54  1  0.94077272  0.29304373  0.82039963  1  0.61039  -0.005065  3.944372  -0.003  0.565981  -0.009788  4.231759  -0.006  0.598727  -0.007943  4.228549  -0.005  0.19702  0.543646  -0.011527  4.231879  -0.007
C  C55  1  0.94076998  0.70696289  0.17959518  1  0.610412  0.005077  3.944073  0.003  0.566037  0.009786  4.231441  0.006  0.598779  0.007942  4.228233  0.005  0.197047  0.543706  0.011525  4.231549  0.007
C  C56  1  0.86585033  0.41463281  0.80161095  1  -0.037004  0.001266  3.781642  0.001  -0.011281  0.001405  4.016577  0.001  -0.017372  0.001426  4.038129  0.001  -0.016375  -0.008053  0.001015  4.003295  0.001
C  C57  1  0.86584015  0.58537602  0.19839335  1  -0.037121  -0.001499  3.781674  -0.001  -0.011356  -0.001403  4.016611  -0.001  -0.017442  -0.001423  4.038163  -0.001  -0.016435  -0.008122  -0.001015  4.003315  -0.001
C  C58  1  0.92756411  0.55196998  0.84777117  1  -0.08738  0.000557  3.689212  0.0  -0.128737  5.7e-05  3.942892  0.0  -0.12714  -0.00021  3.960953  0.0  -0.082771  -0.130368  0.000495  3.93244  0.0
C  C59  1  0.92756281  0.44804077  0.15222672  1  -0.087015  -0.000346  3.688898  0.0  -0.128459  -5.3e-05  3.942625  0.0  -0.126858  0.000218  3.960673  0.0  -0.082609  -0.130098  -0.000495  3.932181  0.0
C  C60  1  0.86249228  0.66398082  0.82507651  1  -0.049269  -0.000761  3.788578  -0.001  -0.021943  -0.000102  4.02207  -0.001  -0.029684  -0.00014  4.043558  0.0  -0.018704  -0.017223  -5.2e-05  4.009094  -0.001
C  C61  1  0.86248687  0.33602796  0.17493115  1  -0.049716  0.000558  3.788907  0.001  -0.022293  0.000105  4.022365  0.001  -0.030036  0.000124  4.043851  0.0  -0.018817  -0.017566  5.2e-05  4.00939  0.001
C  C62  1  0.73558138  0.63984505  0.75638620  1  -0.213885  0.000206  3.739326  0.0  -0.244532  -0.000228  3.988543  0.0  -0.245358  -0.000375  4.00455  0.0  -0.105307  -0.243143  0.001861  3.977562  0.001
C  C63  1  0.73558224  0.36015987  0.24361493  1  -0.21379  1.1e-05  3.739578  0.0  -0.244447  0.000221  3.988748  0.0  -0.245282  0.000389  4.004777  0.0  -0.105304  -0.243054  -0.001859  3.977773  -0.001
C  C64  1  0.67071972  0.50395041  0.71556860  1  0.258882  -0.000262  3.825695  0.0  0.255196  -0.000131  4.085354  0.0  0.264007  -8.4e-05  4.101064  0.0  0.07699  0.248891  -0.000521  4.074891  -0.001
C  C65  1  0.67072028  0.49605255  0.28443809  1  0.25881  4.9e-05  3.825682  0.0  0.255228  0.000138  4.085231  0.0  0.264035  7.8e-05  4.100938  0.0  0.077041  0.24891  0.000521  4.074784  0.001
C  C66  1  0.73655521  0.39103768  0.73770923  1  -0.167687  -0.000142  3.687066  0.0  -0.203524  -0.000603  3.936263  -0.001  -0.203407  -0.000751  3.950923  -0.001  -0.092749  -0.203139  0.002438  3.927016  0.002
C  C67  1  0.73655561  0.60896618  0.26229490  1  -0.167729  0.000469  3.687244  0.001  -0.203603  0.000597  3.936433  0.001  -0.203488  0.000745  3.951096  0.001  -0.092781  -0.203208  -0.002434  3.927172  -0.002
C  C68  1  0.93206349  0.80886921  0.86991137  1  0.651593  0.00759  3.878437  0.008  0.598003  0.010444  4.167919  0.01  0.635722  0.006599  4.159353  0.007  0.217287  0.570232  0.017345  4.174022  0.016
C  C69  1  0.93206148  0.19113729  0.13008596  1  0.651903  -0.007576  3.878382  -0.008  0.59828  -0.010442  4.16789  -0.01  0.635999  -0.006602  4.15932  -0.007  0.217405  0.570504  -0.017339  4.174003  -0.016
C  C70  1  0.47581506  0.58921093  0.63149998  1  0.052723  -4.4e-05  3.651513  0.0  -0.011864  -4e-06  3.915098  0.0  -0.002967  3e-06  3.919059  0.0  -0.065123  -0.017787  2.8e-05  3.912774  0.0
C  C71  1  0.47581038  0.41078724  0.36849851  1  0.052789  -1.9e-05  3.651448  0.0  -0.011791  5e-06  3.915025  0.0  -0.002902  -3e-06  3.918989  0.0  -0.065052  -0.017704  -2.8e-05  3.912697  0.0
C  C72  1  0.33784087  0.53972087  0.56344827  1  0.016958  9e-05  3.731493  0.0  0.031605  0.000206  3.968508  0.0  0.029796  0.000178  3.992786  0.0  -0.01487  0.032092  0.000256  3.954114  0.0
C  C73  1  0.33783966  0.46027114  0.43654887  1  0.016964  -6.4e-05  3.731573  0.0  0.031596  -0.000207  3.968626  0.0  0.029788  -0.000176  3.992906  0.0  -0.014935  0.032083  -0.000256  3.954232  0.0
C  C74  1  0.20748538  0.57732041  0.62540742  1  -0.098965  0.000123  3.731809  0.0  -0.12046  0.000183  3.979733  0.0  -0.123521  0.000166  4.003192  0.0  -0.085554  -0.11918  0.000179  3.966296  0.0
C  C75  1  0.20748299  0.42266983  0.37458978  1  -0.098835  -0.00017  3.731768  0.0  -0.120358  -0.000182  3.979715  0.0  -0.12342  -0.000168  4.003176  0.0  -0.085542  -0.119081  -0.000179  3.966289  0.0
C  C76  1  0.07786024  0.53835110  0.56285330  1  -0.064395  3.9e-05  3.777093  0.0  -0.076146  3.6e-05  4.023038  0.0  -0.078662  4.6e-05  4.046965  0.0  -0.090578  -0.075001  9.2e-05  4.008223  0.0
C  C77  1  0.07786119  0.46163631  0.43714275  1  -0.064484  -2e-06  3.777115  0.0  -0.076218  -3.6e-05  4.023062  0.0  -0.078736  -4.6e-05  4.04699  0.0  -0.090634  -0.075077  -9.2e-05  4.008257  0.0
C  C78  1  0.49310458  0.18567311  0.00319068  1  -0.124734  0.002954  3.746123  0.003  -0.136152  0.00188  3.997898  0.002  -0.1444  0.002505  4.020383  0.002  -0.085617  -0.130937  0.001621  3.98332  0.002
C  C79  1  0.49310247  0.81431345  0.99680478  1  -0.12499  -0.002863  3.746033  -0.002  -0.136368  -0.001882  3.997761  -0.002  -0.14462  -0.002504  4.020243  -0.002  -0.085635  -0.131153  -0.001622  3.983189  -0.002
N  N80  1  0.13965515  0.94549814  0.67960484  1  -0.355358  -0.027073  3.249232  -0.014  -0.295967  -0.032503  3.530907  -0.015  -0.315488  -0.028626  3.546438  -0.012  -0.312615  -0.281322  -0.036238  3.520182  -0.018
N  N81  1  0.13966231  0.05449764  0.32039112  1  -0.355329  0.027027  3.249178  0.014  -0.295942  0.032503  3.530855  0.015  -0.315464  0.028624  3.546391  0.012  -0.312651  -0.281289  0.036236  3.520125  0.018
N  N82  1  0.27806926  0.09032824  0.89041150  1  -0.339696  -0.024586  3.24689  -0.011  -0.273814  -0.028027  3.521642  -0.01  -0.29359  -0.024386  3.535737  -0.007  -0.311773  -0.260212  -0.031619  3.512562  -0.013
N  N83  1  0.27807245  0.90966188  0.10957943  1  -0.339623  0.024617  3.246687  0.011  -0.273734  0.028022  3.52144  0.01  -0.293505  0.024382  3.535532  0.007  -0.311781  -0.26013  0.031615  3.512358  0.013
O  O84  1  0.89033876  0.90191315  0.82838163  1  -0.618447  -0.023536  2.005567  -0.012  -0.55517  -0.022739  2.265436  -0.007  -0.585055  -0.022267  2.252786  -0.007  -0.306623  -0.532753  -0.021771  2.27485  -0.006
O  O85  1  0.89034029  0.09809602  0.17162350  1  -0.618491  0.023525  2.00543  0.012  -0.555266  0.022738  2.265399  0.007  -0.585148  0.022271  2.252746  0.007  -0.306695  -0.532857  0.021771  2.274841  0.006
O  O86  1  0.03492833  0.83210688  0.94626751  1  -0.662821  0.023493  2.109274  0.01  -0.595458  0.024739  2.396186  0.007  -0.626326  0.022961  2.378187  0.006  -0.312003  -0.571725  0.026955  2.408442  0.009
O  O87  1  0.03492120  0.16790470  0.05372990  1  -0.662898  -0.023509  2.109284  -0.01  -0.595571  -0.024743  2.396299  -0.007  -0.626443  -0.022961  2.378296  -0.006  -0.312053  -0.571835  -0.026956  2.40856  -0.009
O  O88  1  0.07045937  0.30687153  0.85420073  1  -0.606124  -0.021722  1.897688  -0.018  -0.555967  -0.02988  2.122688  -0.025  -0.582933  -0.025199  2.113845  -0.02  -0.312767  -0.535311  -0.035475  2.127364  -0.031
O  O89  1  0.07043954  0.69313516  0.14577810  1  -0.606065  0.021698  1.897973  0.018  -0.555926  0.029879  2.122962  0.025  -0.582889  0.025195  2.114118  0.02  -0.312729  -0.535279  0.035472  2.127641  0.031
O  O90  1  0.87127554  0.17549209  0.80027162  1  -0.651017  -0.033841  1.986276  -0.026  -0.587984  -0.037966  2.237577  -0.027  -0.62033  -0.032982  2.228209  -0.022  -0.324152  -0.561886  -0.040629  2.243269  -0.029
O  O91  1  0.87127023  0.82452435  0.19974523  1  -0.651094  0.03384  1.985881  0.026  -0.588086  0.03797  2.237162  0.027  -0.620432  0.032992  2.227801  0.022  -0.324231  -0.561988  0.040635  2.242849  0.029
O  O92  1  0.54243239  0.47210927  0.65424166  1  -0.292969  -8e-06  2.282688  0.0  -0.223584  -8e-06  2.514229  0.0  -0.240878  1e-05  2.515815  0.0  -0.185842  -0.211151  -6e-05  2.512679  0.0
O  O93  1  0.54243405  0.52789734  0.34576179  1  -0.292909  -5e-06  2.28257  0.0  -0.223579  9e-06  2.514108  0.0  -0.240858  -1.2e-05  2.515686  0.0  -0.18588  -0.211145  5.9e-05  2.512557  0.0
