# generated using pymatgen
data_ZnH22C32I6(NO5)2
_symmetry_space_group_name_H-M   'P 1'
_cell_length_a   12.37143076
_cell_length_b   12.84784481
_cell_length_c   23.39446951
_cell_angle_alpha   89.07535991
_cell_angle_beta   84.35347745
_cell_angle_gamma   85.93346741
_symmetry_Int_Tables_number   1
_chemical_formula_structural   ZnH22C32I6(NO5)2
_chemical_formula_sum   'Zn2 H44 C64 I12 N4 O20'
_cell_volume   3690.94654601
_cell_formula_units_Z   2
loop_
 _symmetry_equiv_pos_site_id
 _symmetry_equiv_pos_as_xyz
  1  'x, y, z'
loop_
 _atom_site_type_symbol
 _atom_site_label
 _atom_site_symmetry_multiplicity
 _atom_site_fract_x
 _atom_site_fract_y
 _atom_site_fract_z
 _atom_site_occupancy
 _atom_site_pbe_bader_charge
 _atom_site_pbe_bader_spin_density
 _atom_site_pbe_cm5_charge
 _atom_site_pbe_ddec_charge
 _atom_site_pbe_ddec_spin_density
 _atom_site_pbe_ddec_sum_bond_order
 _atom_site_pbe_magmom
Zn  Zn0  1  0.63470959  0.50760310  0.49520566  1  1.315919  0  0.671437  0.911572  0  2.220291  0
Zn  Zn1  1  0.39191024  0.48677050  0.49798405  1  1.333544  0  0.678735  0.924684  0  2.304334  0
H  H2  1  0.59712733  0.75593080  0.92966494  1  0.13861  0  0.122512  0.144182  0  0.972759  0
H  H3  1  0.33404560  0.33263678  0.07437692  1  0.147181  0  0.122331  0.144823  0  0.969906  0
H  H4  1  0.42987779  0.65084438  0.34076639  1  0.08262  0  0.109119  0.127549  0  1.014996  0
H  H5  1  0.64876793  0.43477550  0.67289091  1  0.115814  0  0.092739  0.101586  0  1.092506  0
H  H6  1  0.48559392  0.82779815  0.10932320  1  0.090885  0  0.101088  0.064836  0  1.024358  0
H  H7  1  0.45919280  0.91099134  0.04915226  1  0.032985  0  0.096426  0.052883  0  0.967916  0
H  H8  1  0.63641021  0.99369699  0.05904534  1  0.007969  0  0.091034  0.122035  0  0.998816  0
H  H9  1  0.54518903  0.00853287  0.12264100  1  0.035098  0  0.095073  0.127184  0  0.994362  0
H  H10  1  0.65631112  0.91176527  0.12012495  1  0.086296  0  0.099643  0.142779  0  0.981116  0
H  H11  1  0.45639647  0.16568225  0.97847081  1  0.02816  0  0.093707  0.047958  0  0.974408  0
H  H12  1  0.46641414  0.23200647  0.91014285  1  0.081154  0  0.099687  0.065462  0  1.006029  0
H  H13  1  0.29685954  0.15903119  0.88552356  1  0.048224  0  0.097855  0.1392  0  0.984586  0
H  H14  1  0.39267230  0.05564508  0.90260081  1  0.019989  0  0.095107  0.126702  0  0.993312  0
H  H15  1  0.28120961  0.09432035  0.95370159  1  0.020053  0  0.090994  0.12163  0  0.998189  0
H  H16  1  0.39761462  0.80150639  0.29053170  1  0.057336  0  0.10525  0.067414  0  0.958133  0
H  H17  1  0.27902870  0.72960898  0.30372342  1  0.042385  0  0.090528  0.051002  0  1.000973  0
H  H18  1  0.20482388  0.81228135  0.21574167  1  0.039689  0  0.094693  0.12898  0  0.990437  0
H  H19  1  0.23272097  0.90925495  0.26493789  1  0.036644  0  0.097835  0.132591  0  0.988136  0
H  H20  1  0.32404288  0.88273579  0.20248391  1  0.041387  0  0.094687  0.128917  0  0.995999  0
H  H21  1  0.78229281  0.44394679  0.73121118  1  0.015967  0  0.085651  0.050406  0  1.023164  0
H  H22  1  0.73618925  0.31565667  0.73192605  1  0.023667  0  0.095165  0.054916  0  0.972758  0
H  H23  1  0.79790519  0.28465299  0.83091639  1  0.045999  0  0.09587  0.131882  0  0.986802  0
H  H24  1  0.90766038  0.31820952  0.78061114  1  0.027031  0  0.090314  0.126546  0  1.00488  0
H  H25  1  0.84384928  0.41314084  0.83000809  1  0.057456  0  0.096263  0.13453  0  0.983648  0
H  H26  1  0.73757602  0.14332935  0.41576287  1  0.036952  0  0.093987  0.056636  0  0.992444  0
H  H27  1  0.84036499  0.06643513  0.44906272  1  0.059893  0  0.094988  0.05704  0  0.972425  0
H  H28  1  0.92903692  0.23410447  0.46804064  1  0.027146  0  0.078445  0.113167  0  1.059414  0
H  H29  1  0.92084628  0.21355631  0.39388063  1  0.032035  0  0.090512  0.130635  0  0.985657  0
H  H30  1  0.82624949  0.30558585  0.43186423  1  0.068481  0  0.081471  0.130516  0  1.025643  0
H  H31  1  0.12714412  0.91008277  0.54947058  1  0.038079  0  0.093195  0.051422  0  1.001306  0
H  H32  1  0.22468376  0.82183650  0.57960139  1  0.02654  0  0.083454  0.047541  0  1.026669  0
H  H33  1  0.13781970  0.67123954  0.54107081  1  0.065472  0  0.080532  0.127281  0  1.03388  0
H  H34  1  0.04472268  0.74682845  0.58983973  1  0.059192  0  0.08501  0.123848  0  1.00136  0
H  H35  1  0.03482350  0.75905594  0.51467059  1  0.024308  0  0.075946  0.113802  0  1.042285  0
H  H36  1  0.27491354  0.16662530  0.52898041  1  0.042461  0  0.077866  0.043703  0  1.063589  0
H  H37  1  0.21090777  0.06450033  0.56882049  1  0.02979  0  0.090952  0.05097  0  0.983947  0
H  H38  1  0.04301825  0.10326790  0.51566632  1  0.025757  0  0.089963  0.129287  0  0.990113  0
H  H39  1  0.07569958  0.21402851  0.55371459  1  0.041298  0  0.075434  0.102036  0  1.057152  0
H  H40  1  0.10948027  0.20637589  0.47791180  1  0.035525  0  0.083357  0.122281  0  1.013102  0
H  H41  1  0.69636492  0.98059733  0.62690672  1  0.062379  0  0.083076  0.03974  0  1.015943  0
H  H42  1  0.77353325  0.07507131  0.58649411  1  0.076437  0  0.090588  0.055439  0  1.020171  0
H  H43  1  0.92360989  0.93660580  0.56164731  1  0.051291  0  0.089338  0.125143  0  1.006764  0
H  H44  1  0.89525954  0.94712781  0.63760230  1  0.034882  0  0.09283  0.127818  0  0.986015  0
H  H45  1  0.84610216  0.84246676  0.60074997  1  0.043863  0  0.082139  0.114897  0  1.028256  0
C  C46  1  0.43351867  0.68976194  0.50350394  1  1.5882  0  0.205748  0.614172  0  4.127153  0
C  C47  1  0.53955558  0.29828045  0.48801342  1  1.570779  0  0.212435  0.619866  0  4.133396  0
C  C48  1  0.58321480  0.46599970  0.22551907  1  -0.110813  0  -0.046053  -0.015096  0  3.872011  0
C  C49  1  0.39749709  0.56653442  0.76294775  1  -0.193082  0  -0.047169  -0.016809  0  3.869304  0
C  C50  1  0.60502166  0.45467305  0.28332947  1  -0.209702  0  -0.061694  -0.019475  0  3.892771  0
C  C51  1  0.40359917  0.57074635  0.70250444  1  -0.18348  0  -0.061074  -0.015557  0  3.874839  0
C  C52  1  0.54861702  0.52266331  0.32394675  1  0.028741  0  -0.014814  -0.003545  0  3.95052  0
C  C53  1  0.49541496  0.52112828  0.67089207  1  0.094669  0  -0.021145  -0.026397  0  3.954353  0
C  C54  1  0.47347534  0.60146227  0.30752083  1  0.072763  0  -0.108179  -0.240798  0  3.991284  0
C  C55  1  0.57893373  0.47016074  0.69929804  1  -0.001513  0  -0.106492  -0.218434  0  3.970698  0
C  C56  1  0.45242851  0.61346305  0.25022965  1  0.50317  0  0.092052  0.208613  0  4.066183  0
C  C57  1  0.57258886  0.46600254  0.75907019  1  0.458716  0  0.092782  0.211582  0  4.047355  0
C  C58  1  0.50660016  0.54375923  0.20936026  1  0.376674  0  0.07505  0.066872  0  3.999699  0
C  C59  1  0.48099268  0.51462574  0.79076384  1  0.490904  0  0.077398  0.072412  0  4.003489  0
C  C60  1  0.54545245  0.18040525  0.48580149  1  0.057779  0  -0.027679  -0.141141  0  3.950263  0
C  C61  1  0.42692682  0.80689754  0.51030519  1  0.035704  0  -0.028711  -0.151385  0  3.931163  0
C  C62  1  0.34067249  0.97752956  0.48718376  1  0.532884  0  0.066147  0.102175  0  4.053531  0
C  C63  1  0.62536315  0.01503550  0.52288539  1  0.559469  0  0.06788  0.10304  0  4.04366  0
C  C64  1  0.33511970  0.87049424  0.49394447  1  0.531721  0  0.075346  0.1397  0  4.049109  0
C  C65  1  0.63433815  0.11903265  0.50617637  1  0.525834  0  0.069587  0.122889  0  4.051821  0
C  C66  1  0.51262899  0.85764143  0.53013117  1  -0.233371  0  -0.044006  0.017954  0  3.821422  0
C  C67  1  0.45700211  0.12830617  0.47148418  1  -0.21743  0  -0.04168  0.020791  0  3.846394  0
C  C68  1  0.55613808  0.51139404  0.38771206  1  1.584158  0  0.215223  0.620209  0  4.134282  0
C  C69  1  0.50873682  0.51318799  0.60628894  1  1.578972  0  0.209931  0.604643  0  4.146461  0
C  C70  1  0.52755019  0.96465536  0.51670537  1  0.062817  0  -0.021541  -0.035501  0  3.986709  0
C  C71  1  0.44166776  0.02410083  0.48952246  1  0.013074  0  -0.022932  -0.039359  0  4.006514  0
C  C72  1  0.05536726  0.45915700  0.57728559  1  -0.095024  0  -0.058369  -0.06989  0  3.930085  0
C  C73  1  0.97249496  0.59782412  0.44689708  1  -0.164379  0  -0.058106  -0.071282  0  3.869791  0
C  C74  1  0.16575589  0.43386040  0.56206804  1  0.29773  0  0.06854  0.144507  0  3.902262  0
C  C75  1  0.86094122  0.60914868  0.46344823  1  0.246595  0  0.058463  0.13505  0  3.896651  0
C  C76  1  0.15163260  0.49238485  0.46772594  1  0.383508  0  0.09496  0.156665  0  3.8401  0
C  C77  1  0.87263225  0.48328592  0.53513280  1  0.451219  0  0.096732  0.155041  0  3.838622  0
C  C78  1  0.03901906  0.52794507  0.47966949  1  0.084074  0  0.002102  0.029336  0  3.935407  0
C  C79  1  0.98866658  0.49197879  0.53344350  1  0.014258  0  -0.002672  0.02385  0  3.953831  0
C  C80  1  0.43272648  0.43716869  0.88477415  1  1.31928  0  0.239338  0.451515  0  4.091626  0
C  C81  1  0.53074191  0.63286793  0.11747277  1  1.361022  0  0.23902  0.4515  0  4.101416  0
C  C82  1  0.53325172  0.60100255  0.87262073  1  1.379745  0  0.238979  0.444772  0  4.108962  0
C  C83  1  0.41400080  0.48064209  0.13170058  1  1.334799  0  0.237067  0.443413  0  4.107917  0
C  C84  1  0.52398910  0.61006476  0.93568521  1  -0.063938  0  -0.006574  -0.041813  0  4.009782  0
C  C85  1  0.41727023  0.47330092  0.06850498  1  0.028879  0  -0.007043  -0.044537  0  4.010281  0
C  C86  1  0.47354947  0.53375460  0.97162631  1  0.020785  0  0.000598  0.039009  0  3.989468  0
C  C87  1  0.46891606  0.54815421  0.03215298  1  -0.02866  0  0.000782  0.043412  0  3.993181  0
C  C88  1  0.43087909  0.44535366  0.94796191  1  0.053451  0  -0.014423  -0.174525  0  3.930092  0
C  C89  1  0.51377075  0.63534141  0.05584338  1  -0.018641  0  -0.01897  -0.188043  0  3.946901  0
C  C90  1  0.56187296  0.69725575  0.95855395  1  0.008099  0  -0.070095  -0.172257  0  3.910168  0
C  C91  1  0.37351058  0.38911273  0.04559788  1  0.017147  0  -0.070759  -0.174124  0  3.910774  0
C  C92  1  0.55410578  0.71369171  0.01830347  1  0.565173  0  0.110312  0.268557  0  4.030091  0
C  C93  1  0.38205674  0.37178415  0.98589144  1  0.513139  0  0.106703  0.261942  0  4.023556  0
C  C94  1  0.52328670  0.87305543  0.07357888  1  0.368455  0  -0.064857  0.085841  0  3.906245  0
C  C95  1  0.59495529  0.95140441  0.09502505  1  -0.044023  0  -0.242048  -0.39667  0  3.977053  0
C  C96  1  0.40991794  0.20058056  0.94414312  1  0.37899  0  -0.06521  0.090698  0  3.909078  0
C  C97  1  0.34062967  0.12281827  0.92013879  1  -0.006462  0  -0.241391  -0.393007  0  3.979698  0
C  C98  1  0.33271129  0.76637297  0.26989873  1  0.400408  0  -0.061777  0.093103  0  3.897408  0
C  C99  1  0.26976928  0.84714361  0.23607826  1  -0.046161  0  -0.240031  -0.39557  0  3.971711  0
C  C100  1  0.75091774  0.38112653  0.75946670  1  0.454389  0  -0.068636  0.089224  0  3.912493  0
C  C101  1  0.82939270  0.34739843  0.80301406  1  -0.059385  0  -0.242971  -0.395236  0  3.967957  0
C  C102  1  0.79613152  0.14400379  0.44829171  1  0.37701  0  -0.066385  0.103835  0  3.855262  0
C  C103  1  0.87237614  0.22998903  0.43514149  1  -0.071254  0  -0.258105  -0.408571  0  3.969369  0
C  C104  1  0.17046907  0.83215286  0.54492557  1  0.415176  0  -0.070311  0.099164  0  3.873371  0
C  C105  1  0.09205057  0.74699604  0.54751497  1  -0.10768  0  -0.258683  -0.396758  0  3.951275  0
C  C106  1  0.21366149  0.10872063  0.52791092  1  0.408094  0  -0.081963  0.069011  0  3.922111  0
C  C107  1  0.10383340  0.16094286  0.51810502  1  -0.066509  0  -0.253706  -0.391903  0  3.97613  0
C  C108  1  0.75843692  0.99187491  0.59061249  1  0.331707  0  -0.078414  0.077944  0  3.912691  0
C  C109  1  0.86202770  0.92546335  0.59791335  1  -0.064555  0  -0.247576  -0.388644  0  3.974954  0
I  I110  1  0.81061777  0.35147409  0.57701064  1  0.265329  0  0.205449  0.11406  0  1.840243  0
I  I111  1  0.22207876  0.47681990  0.38289388  1  0.248151  0  0.171803  0.087523  0  1.734142  0
I  I112  1  0.76083662  0.73436656  0.43745342  1  0.268785  0  0.161313  0.094775  0  1.735663  0
I  I113  1  0.25611963  0.34593686  0.61961814  1  0.240247  0  0.160328  0.094915  0  1.686898  0
I  I114  1  0.99437827  0.47184921  0.66364950  1  0.195238  0  0.125884  0.007021  0  1.758954  0
I  I115  1  0.03995263  0.70332534  0.38638691  1  0.204178  0  0.127894  0.036507  0  1.715291  0
I  I116  1  0.66460340  0.36924604  0.16092308  1  0.131032  0  0.070531  -0.019715  0  1.491517  0
I  I117  1  0.26578808  0.63755132  0.81552423  1  0.130127  0  0.062199  -0.023607  0  1.493827  0
I  I118  1  0.71260667  0.33408656  0.31049423  1  0.135828  0  0.071583  -0.014454  0  1.591803  0
I  I119  1  0.28286444  0.65971745  0.66220797  1  0.150447  0  0.075592  -0.021464  0  1.845151  0
I  I120  1  0.36648997  0.19875533  0.40672221  1  0.143554  0  0.074764  -0.024992  0  1.654279  0
I  I121  1  0.59390279  0.78060239  0.59623768  1  0.163101  0  0.10567  0.015693  0  1.731428  0
N  N122  1  0.48085484  0.51807658  0.85187876  1  -1.216503  0  -0.243574  -0.224309  0  3.671953  0
N  N123  1  0.48190121  0.55333804  0.15098396  1  -1.177867  0  -0.242249  -0.221585  0  3.668879  0
N  N124  1  0.81175096  0.53836163  0.50065119  1  -1.163307  0  -0.299443  -0.248891  0  3.458817  0
N  N125  1  0.21164813  0.44997240  0.50760720  1  -1.200232  0  -0.308003  -0.265392  0  3.464098  0
O  O126  1  0.52927514  0.64636771  0.49781119  1  -1.190159  0  -0.323982  -0.588351  0  2.482353  0
O  O127  1  0.44303426  0.33700264  0.50273151  1  -1.170518  0  -0.327021  -0.571105  0  2.474491  0
O  O128  1  0.34722987  0.64192679  0.49979378  1  -1.134596  0  -0.315026  -0.528087  0  2.30801  0
O  O129  1  0.62447503  0.34828352  0.48075340  1  -1.170722  0  -0.306078  -0.542314  0  2.380266  0
O  O130  1  0.64639309  0.52201256  0.40783837  1  -1.149784  0  -0.315358  -0.540377  0  2.367044  0
O  O131  1  0.42308212  0.50830151  0.58179524  1  -1.189501  0  -0.31334  -0.550308  0  2.53261  0
O  O132  1  0.46631829  0.49428211  0.41588445  1  -1.176079  0  -0.317292  -0.570967  0  2.448401  0
O  O133  1  0.60601260  0.50770436  0.58175633  1  -1.170831  0  -0.323906  -0.565769  0  2.434148  0
O  O134  1  0.39416004  0.36725059  0.85967705  1  -1.095082  0  -0.268121  -0.426661  0  2.123477  0
O  O135  1  0.58809029  0.69177214  0.13995480  1  -1.095538  0  -0.269004  -0.425923  0  2.110441  0
O  O136  1  0.58055326  0.66206559  0.83959944  1  -1.111194  0  -0.282777  -0.437457  0  2.063057  0
O  O137  1  0.36178585  0.42473664  0.16556049  1  -1.105325  0  -0.283658  -0.434513  0  2.062389  0
O  O138  1  0.59141809  0.80467578  0.03369750  1  -1.062197  0  -0.181327  -0.209678  0  2.515404  0
O  O139  1  0.33692068  0.28473344  0.96972197  1  -1.06668  0  -0.193184  -0.225303  0  2.501765  0
O  O140  1  0.38136933  0.68750386  0.23021146  1  -1.068706  0  -0.177663  -0.191852  0  2.531554  0
O  O141  1  0.64977989  0.41935633  0.79032286  1  -1.071925  0  -0.178472  -0.188175  0  2.524115  0
O  O142  1  0.73450549  0.15992066  0.50453048  1  -1.056381  0  -0.204101  -0.225572  0  2.543255  0
O  O143  1  0.23712545  0.82858144  0.49021631  1  -1.043303  0  -0.204977  -0.215833  0  2.50952  0
O  O144  1  0.24529715  0.03599688  0.48118005  1  -1.06095  0  -0.200822  -0.214818  0  2.570576  0
O  O145  1  0.71597630  0.95820616  0.53856694  1  -1.076574  0  -0.201385  -0.224452  0  2.60669  0
