# generated using pymatgen
data_Zn2CdH18(C9O4)3
_symmetry_space_group_name_H-M   'P 1'
_cell_length_a   7.35044135
_cell_length_b   18.45995645
_cell_length_c   23.48671394
_cell_angle_alpha   89.99941549
_cell_angle_beta   90.00047680
_cell_angle_gamma   90.00121341
_symmetry_Int_Tables_number   1
_chemical_formula_structural   Zn2CdH18(C9O4)3
_chemical_formula_sum   'Zn8 Cd4 H72 C108 O48'
_cell_volume   3186.88466677
_cell_formula_units_Z   4
loop_
 _symmetry_equiv_pos_site_id
 _symmetry_equiv_pos_as_xyz
  1  'x, y, z'
loop_
 _atom_site_type_symbol
 _atom_site_label
 _atom_site_symmetry_multiplicity
 _atom_site_fract_x
 _atom_site_fract_y
 _atom_site_fract_z
 _atom_site_occupancy
 _atom_site_pbe_bader_charge
 _atom_site_pbe_bader_spin_density
 _atom_site_pbe_cm5_charge
 _atom_site_pbe_ddec_charge
 _atom_site_pbe_ddec_spin_density
 _atom_site_pbe_ddec_sum_bond_order
 _atom_site_pbe_magmom
Zn  Zn0  1  0.16312707  0.55785414  0.08020929  1  1.2961  0  0.724594  0.949891  0  2.020302  0
Zn  Zn1  1  0.33688140  0.05785475  0.91979003  1  1.295879  0  0.724637  0.949956  0  2.020376  0
Zn  Zn2  1  0.83686404  0.44214763  0.58021251  1  1.296086  0  0.724582  0.949884  0  2.020287  0
Zn  Zn3  1  0.66311151  0.94214641  0.41979319  1  1.295839  0  0.724585  0.949951  0  2.02034  0
Zn  Zn4  1  0.83687650  0.44214543  0.91978704  1  1.295859  0  0.724593  0.949865  0  2.020373  0
Zn  Zn5  1  0.66312353  0.94214482  0.08021013  1  1.295908  0  0.724612  0.949972  0  2.020336  0
Zn  Zn6  1  0.16313545  0.55785736  0.41978510  1  1.295916  0  0.724609  0.949985  0  2.020226  0
Zn  Zn7  1  0.33687709  0.05785912  0.58020953  1  1.29588  0  0.72464  0.949987  0  2.020241  0
Cd  Cd8  1  0.50000361  0.49999734  0.00000081  1  1.414726  0  0.819746  1.127696  0  2.23167  0
Cd  Cd9  1  0.00001497  0.00000108  0.00000383  1  1.414748  0  0.819749  1.127695  0  2.231539  0
Cd  Cd10  1  0.49999090  0.50000331  0.49999923  1  1.414639  0  0.819778  1.127678  0  2.231711  0
Cd  Cd11  1  0.00000634  0.00000272  0.50000098  1  1.414703  0  0.819736  1.127701  0  2.231624  0
H  H12  1  0.25292495  0.30406697  0.97573716  1  0.155218  0  0.11468  0.127553  0  0.98477  0
H  H13  1  0.99473761  0.34842615  0.13624124  1  0.076022  0  0.104409  0.10587  0  1.024459  0
H  H14  1  0.09390767  0.12794056  0.08540577  1  0.111921  0  0.104276  0.119492  0  1.035362  0
H  H15  1  0.06855315  0.19087375  0.20204420  1  0.004511  0  0.08812  0.119895  0  1.024527  0
H  H16  1  0.87779445  0.24922081  0.19464216  1  0.038863  0  0.088597  0.121095  0  1.020962  0
H  H17  1  0.87202200  0.15968284  0.16666669  1  0.057442  0  0.093396  0.136129  0  1.002045  0
H  H18  1  0.80097287  0.45966001  0.15791917  1  0.124123  0  0.104242  0.117525  0  1.017009  0
H  H19  1  0.08966201  0.44025302  0.21211275  1  0.04659  0  0.093072  0.134718  0  1.010414  0
H  H20  1  0.24707068  0.80406183  0.02425764  1  0.1553  0  0.114698  0.127649  0  0.98477  0
H  H21  1  0.50525067  0.84843028  0.86375243  1  0.075896  0  0.104452  0.105962  0  1.024353  0
H  H22  1  0.40610722  0.62794093  0.91459256  1  0.111935  0  0.104273  0.119482  0  1.035293  0
H  H23  1  0.43145690  0.69087965  0.79795065  1  0.004118  0  0.088139  0.119904  0  1.024443  0
H  H24  1  0.62221715  0.74922941  0.80535614  1  0.039014  0  0.0886  0.121089  0  1.021023  0
H  H25  1  0.62798758  0.65969058  0.83333062  1  0.057528  0  0.093348  0.136108  0  1.002128  0
H  H26  1  0.69904306  0.95964819  0.84208212  1  0.124334  0  0.104324  0.117581  0  1.016905  0
H  H27  1  0.41035171  0.94023666  0.78788819  1  0.046226  0  0.093017  0.134594  0  1.010232  0
H  H28  1  0.74707754  0.69592968  0.47573953  1  0.155149  0  0.114687  0.127586  0  0.984802  0
H  H29  1  0.00525900  0.65157056  0.63624562  1  0.075893  0  0.104438  0.105929  0  1.02431  0
H  H30  1  0.90610805  0.87205790  0.58540317  1  0.111981  0  0.104274  0.119464  0  1.035365  0
H  H31  1  0.93144784  0.80912102  0.70204600  1  0.004201  0  0.088094  0.119812  0  1.024439  0
H  H32  1  0.12220772  0.75077297  0.69464520  1  0.039117  0  0.088587  0.121003  0  1.021049  0
H  H33  1  0.12798490  0.84031293  0.66666946  1  0.057505  0  0.09336  0.136112  0  1.00209  0
H  H34  1  0.19900388  0.54033805  0.65792326  1  0.124392  0  0.104239  0.117553  0  1.016986  0
H  H35  1  0.91033652  0.55975950  0.71212373  1  0.046526  0  0.093064  0.134662  0  1.010262  0
H  H36  1  0.75291900  0.19593308  0.52426515  1  0.155147  0  0.114677  0.127517  0  0.984769  0
H  H37  1  0.49473946  0.15157160  0.36376019  1  0.076032  0  0.104415  0.105936  0  1.024385  0
H  H38  1  0.59389372  0.37206029  0.41459882  1  0.11192  0  0.104273  0.11942  0  1.035292  0
H  H39  1  0.56855740  0.30912038  0.29795565  1  0.015305  0  0.088084  0.119812  0  1.024431  0
H  H40  1  0.37779462  0.25077107  0.30536023  1  0.038747  0  0.088615  0.121096  0  1.020978  0
H  H41  1  0.37202354  0.34030954  0.33333270  1  0.057599  0  0.093369  0.13607  0  1.00202  0
H  H42  1  0.30095876  0.04033989  0.34208344  1  0.124091  0  0.104282  0.117608  0  1.016909  0
H  H43  1  0.58965554  0.05974563  0.28788971  1  0.04636  0  0.093047  0.134657  0  1.010446  0
H  H44  1  0.49239735  0.86383783  0.75000208  1  -0.017643  0  0.086593  0.118862  0  1.015141  0
H  H45  1  0.74707862  0.69593315  0.02426642  1  0.154644  0  0.114653  0.127481  0  0.984795  0
H  H46  1  0.00524011  0.65157288  0.86375978  1  0.07603  0  0.104419  0.105902  0  1.024507  0
H  H47  1  0.90610270  0.87206118  0.91459993  1  0.111892  0  0.104295  0.119436  0  1.035352  0
H  H48  1  0.93143681  0.80912311  0.79795725  1  0.015275  0  0.088101  0.119862  0  1.02442  0
H  H49  1  0.12220096  0.75077713  0.80536142  1  0.038888  0  0.088605  0.121058  0  1.020923  0
H  H50  1  0.12796932  0.84031565  0.83333603  1  0.057539  0  0.09337  0.136094  0  1.00202  0
H  H51  1  0.19905519  0.54035202  0.84208483  1  0.124274  0  0.104337  0.11762  0  1.016908  0
H  H52  1  0.91034564  0.55975630  0.78789380  1  0.046334  0  0.093009  0.134635  0  1.010362  0
H  H53  1  0.00762050  0.36385192  0.24999947  1  -0.017236  0  0.086792  0.119295  0  1.014928  0
H  H54  1  0.75291520  0.19593340  0.97573401  1  0.155147  0  0.114685  0.127522  0  0.984763  0
H  H55  1  0.49476378  0.15156766  0.13624305  1  0.075983  0  0.104445  0.105965  0  1.024424  0
H  H56  1  0.59389907  0.37205755  0.08540079  1  0.112002  0  0.104303  0.11944  0  1.03529  0
H  H57  1  0.56857251  0.30911992  0.20204525  1  0.004451  0  0.088126  0.119869  0  1.024245  0
H  H58  1  0.37780954  0.25077016  0.19464189  1  0.038722  0  0.088593  0.121034  0  1.021002  0
H  H59  1  0.37203911  0.34030737  0.16666656  1  0.057252  0  0.093356  0.136092  0  1.002004  0
H  H60  1  0.30097411  0.04033404  0.15792059  1  0.124142  0  0.104267  0.117588  0  1.017006  0
H  H61  1  0.58965866  0.05974666  0.21211921  1  0.046371  0  0.093056  0.134675  0  1.010309  0
H  H62  1  0.25290699  0.30407748  0.52426063  1  0.155145  0  0.114647  0.127489  0  0.984752  0
H  H63  1  0.99473097  0.34843117  0.36375327  1  0.075786  0  0.104425  0.105913  0  1.024291  0
H  H64  1  0.09389416  0.12794546  0.41459742  1  0.112101  0  0.104295  0.119498  0  1.035275  0
H  H65  1  0.06855709  0.19087801  0.29795629  1  0.0153  0  0.088091  0.119822  0  1.024436  0
H  H66  1  0.87779449  0.24922443  0.30535454  1  0.038725  0  0.088589  0.12103  0  1.020995  0
H  H67  1  0.87201867  0.15968609  0.33333241  1  0.057485  0  0.09337  0.136105  0  1.002069  0
H  H68  1  0.80098064  0.45965665  0.34208159  1  0.124314  0  0.104245  0.117493  0  1.016982  0
H  H69  1  0.08966977  0.44025307  0.28788452  1  0.046671  0  0.093036  0.134674  0  1.010269  0
H  H70  1  0.99238987  0.63615686  0.75000879  1  -0.017461  0  0.086671  0.119015  0  1.015008  0
H  H71  1  0.24707777  0.80407136  0.47573203  1  0.154516  0  0.114698  0.127505  0  0.98475  0
H  H72  1  0.50525867  0.84843501  0.63623657  1  0.076006  0  0.104452  0.105956  0  1.024353  0
H  H73  1  0.40610577  0.62794632  0.58540006  1  0.111994  0  0.104312  0.119478  0  1.035268  0
H  H74  1  0.43144889  0.69088569  0.70204196  1  0.01538  0  0.088073  0.119755  0  1.024427  0
H  H75  1  0.62221167  0.74923554  0.69463780  1  0.038916  0  0.08858  0.121058  0  1.020949  0
H  H76  1  0.62798683  0.65969599  0.66666533  1  0.057609  0  0.093361  0.136056  0  1.002107  0
H  H77  1  0.69903392  0.95964993  0.65791928  1  0.124349  0  0.104324  0.117561  0  1.016913  0
H  H78  1  0.41034531  0.94023607  0.71211684  1  0.046335  0  0.093034  0.13464  0  1.010233  0
H  H79  1  0.50760894  0.13614549  0.25000447  1  -0.017248  0  0.08681  0.119332  0  1.014801  0
H  H80  1  0.34234667  0.54435594  0.25000005  1  0.12761  0  0.112317  0.126729  0  1.003907  0
H  H81  1  0.15766108  0.04435994  0.74999895  1  0.127459  0  0.112301  0.126701  0  1.003991  0
H  H82  1  0.65765418  0.45564201  0.74999841  1  0.127608  0  0.11232  0.126736  0  1.003916  0
H  H83  1  0.84232481  0.95564180  0.24999951  1  0.127316  0  0.112296  0.12674  0  1.003915  0
C  C84  1  0.19133909  0.28459402  0.01497269  1  -0.034829  0  -0.064644  -0.08225  0  3.909494  0
C  C85  1  0.12488503  0.33395708  0.05522921  1  -0.03186  0  -0.021581  -0.0488  0  3.990191  0
C  C86  1  0.04583125  0.30883827  0.10575436  1  -0.059293  0  -0.073284  -0.133635  0  3.907283  0
C  C87  1  0.14922566  0.41312645  0.04457907  1  1.554632  0  0.214198  0.589544  0  4.180345  0
C  C88  1  0.24906697  0.15631085  0.98513412  1  1.475796  0  0.212416  0.580309  0  4.136081  0
C  C89  1  0.17744014  0.21049512  0.02575438  1  -0.015046  0  -0.016292  -0.036396  0  3.99689  0
C  C90  1  0.10017811  0.18599440  0.07702464  1  -0.071805  0  -0.073215  -0.131077  0  3.864643  0
C  C91  1  0.03455937  0.23470633  0.11762859  1  0.089561  0  -0.007796  0.162724  0  3.975981  0
C  C92  1  0.95852836  0.20745143  0.17305619  1  -0.052685  0  -0.23782  -0.410437  0  3.958621  0
C  C93  1  0.46345164  0.51807213  0.14397144  1  1.546581  0  0.217315  0.594961  0  4.176549  0
C  C94  1  0.56114810  0.50249307  0.19851737  1  -0.000269  0  -0.019383  -0.034118  0  3.997263  0
C  C95  1  0.73495180  0.47110911  0.19862077  1  -0.103884  0  -0.078481  -0.14697  0  3.889376  0
C  C96  1  0.30865688  0.78459157  0.98502353  1  -0.103822  0  -0.064644  -0.082319  0  3.909599  0
C  C97  1  0.37510947  0.83395734  0.94476790  1  -0.032232  0  -0.021633  -0.048794  0  3.990289  0
C  C98  1  0.45415920  0.80884202  0.89424210  1  -0.059246  0  -0.073207  -0.133676  0  3.907307  0
C  C99  1  0.35077983  0.91312475  0.95541868  1  1.554813  0  0.214117  0.589512  0  4.180472  0
C  C100  1  0.25094262  0.65630642  0.01486186  1  1.475808  0  0.212443  0.580381  0  4.135846  0
C  C101  1  0.32256279  0.71049456  0.97424158  1  0.05378  0  -0.016335  -0.036535  0  3.996763  0
C  C102  1  0.39982760  0.68599462  0.92297238  1  -0.071951  0  -0.073174  -0.131034  0  3.864413  0
C  C103  1  0.46544077  0.73470979  0.88236889  1  0.089525  0  -0.007829  0.16272  0  3.975943  0
C  C104  1  0.54148103  0.70745689  0.82693947  1  -0.052503  0  -0.237838  -0.410464  0  3.958579  0
C  C105  1  0.03656152  0.01807428  0.85602692  1  1.546638  0  0.21748  0.595148  0  4.176461  0
C  C106  1  0.93886269  0.00249012  0.80148334  1  -0.000106  0  -0.019293  -0.033993  0  3.997387  0
C  C107  1  0.76506337  0.97110164  0.80137958  1  -0.104354  0  -0.078663  -0.147038  0  3.889398  0
C  C108  1  0.80866533  0.71540373  0.51497321  1  -0.034815  0  -0.064629  -0.082201  0  3.909602  0
C  C109  1  0.87511769  0.66604122  0.55522902  1  -0.031871  0  -0.021622  -0.048844  0  3.990205  0
C  C110  1  0.95417139  0.69115938  0.60575547  1  -0.059254  0  -0.073254  -0.133669  0  3.907182  0
C  C111  1  0.85077678  0.58687470  0.54458542  1  1.554591  0  0.214167  0.589614  0  4.180395  0
C  C112  1  0.75094120  0.84368729  0.48513490  1  1.475841  0  0.212442  0.580322  0  4.136336  0
C  C113  1  0.82256999  0.78950031  0.52575307  1  -0.014992  0  -0.016295  -0.036461  0  3.996858  0
C  C114  1  0.89983196  0.81400416  0.57702377  1  -0.071979  0  -0.073254  -0.131072  0  3.864595  0
C  C115  1  0.96544357  0.76529279  0.61762914  1  0.089631  0  -0.007809  0.162688  0  3.976077  0
C  C116  1  0.04147870  0.79254427  0.67305825  1  -0.052616  0  -0.237766  -0.41025  0  3.958456  0
C  C117  1  0.53651386  0.48192339  0.64397011  1  1.546595  0  0.217374  0.594948  0  4.175803  0
C  C118  1  0.43882560  0.49750338  0.69851905  1  -6e-05  0  -0.019394  -0.034046  0  3.997159  0
C  C119  1  0.26502870  0.52889112  0.69862471  1  -0.104542  0  -0.07846  -0.147041  0  3.889611  0
C  C120  1  0.69133088  0.21540333  0.48503089  1  -0.035008  0  -0.064593  -0.082057  0  3.909318  0
C  C121  1  0.62488271  0.16604133  0.44477590  1  -0.031919  0  -0.021625  -0.048943  0  3.990258  0
C  C122  1  0.54583034  0.19115893  0.39424840  1  -0.059174  0  -0.073214  -0.133651  0  3.907359  0
C  C123  1  0.64921671  0.08687270  0.45542099  1  1.554645  0  0.214203  0.589604  0  4.180189  0
C  C124  1  0.74905363  0.34369187  0.51486860  1  1.475623  0  0.212371  0.580315  0  4.136088  0
C  C125  1  0.67742605  0.28950156  0.47425044  1  -0.014927  0  -0.016279  -0.036424  0  3.996593  0
C  C126  1  0.60016947  0.31400433  0.42298082  1  -0.071942  0  -0.073256  -0.131  0  3.864368  0
C  C127  1  0.53456208  0.26528860  0.38237329  1  0.089585  0  -0.007836  0.162648  0  3.975947  0
C  C128  1  0.45852449  0.29254168  0.32694429  1  -0.052486  0  -0.237776  -0.41027  0  3.958232  0
C  C129  1  0.96342978  0.98192934  0.35602760  1  1.546885  0  0.217529  0.595324  0  4.17659  0
C  C130  1  0.06113402  0.99750228  0.30148270  1  -0.000746  0  -0.019337  -0.034128  0  3.997657  0
C  C131  1  0.23494014  0.02888589  0.30137996  1  -0.103533  0  -0.078594  -0.147211  0  3.889451  0
C  C132  1  0.80865904  0.71540447  0.98503045  1  -0.034429  0  -0.064585  -0.081951  0  3.909497  0
C  C133  1  0.87510902  0.66604249  0.94477479  1  -0.031998  0  -0.021579  -0.04891  0  3.990321  0
C  C134  1  0.95415328  0.69116130  0.89424751  1  -0.059248  0  -0.073261  -0.133681  0  3.907434  0
C  C135  1  0.85077655  0.58687312  0.95542322  1  1.5543  0  0.214171  0.589641  0  4.180467  0
C  C136  1  0.75093660  0.84369088  0.01486690  1  1.475803  0  0.212434  0.580508  0  4.135975  0
C  C137  1  0.82255935  0.78950174  0.97424961  1  -0.014988  0  -0.016237  -0.036683  0  3.997021  0
C  C138  1  0.89982138  0.81400571  0.92297978  1  -0.071992  0  -0.07324  -0.130845  0  3.864377  0
C  C139  1  0.96542924  0.76529378  0.88237413  1  0.089908  0  -0.007873  0.162567  0  3.97594  0
C  C140  1  0.04146705  0.79254598  0.82694568  1  -0.052669  0  -0.237796  -0.410276  0  3.958254  0
C  C141  1  0.53657369  0.48193231  0.85602489  1  1.546638  0  0.217511  0.595162  0  4.1764  0
C  C142  1  0.43885683  0.49751300  0.80148152  1  0.000169  0  -0.019316  -0.034  0  3.997441  0
C  C143  1  0.26506537  0.52889858  0.80138195  1  -0.104262  0  -0.078636  -0.147106  0  3.889635  0
C  C144  1  0.69133444  0.21540367  0.01497024  1  -0.035345  0  -0.064585  -0.082  0  3.909307  0
C  C145  1  0.62489002  0.16604006  0.05522673  1  -0.031379  0  -0.021647  -0.049029  0  3.990365  0
C  C146  1  0.54584573  0.19115593  0.10575424  1  -0.059522  0  -0.073197  -0.133596  0  3.907326  0
C  C147  1  0.64923055  0.08687103  0.04458063  1  1.554516  0  0.214136  0.589519  0  4.180568  0
C  C148  1  0.74905279  0.34368990  0.98513107  1  1.475935  0  0.212391  0.580367  0  4.136185  0
C  C149  1  0.67742853  0.28950176  0.02575007  1  -0.014947  0  -0.016307  -0.03656  0  3.996751  0
C  C150  1  0.60017596  0.31400116  0.07702055  1  -0.071914  0  -0.073217  -0.130931  0  3.864334  0
C  C151  1  0.53456961  0.26528544  0.11762787  1  0.089462  0  -0.007889  0.16265  0  3.975687  0
C  C152  1  0.45853478  0.29254106  0.17305644  1  -0.051999  0  -0.237788  -0.410306  0  3.958022  0
C  C153  1  0.96344341  0.98191988  0.14397367  1  1.546624  0  0.217505  0.595149  0  4.17637  0
C  C154  1  0.06114088  0.99749807  0.19851853  1  -0.000394  0  -0.01935  -0.034031  0  3.9976  0
C  C155  1  0.23494836  0.02888114  0.19862314  1  -0.103388  0  -0.078498  -0.147135  0  3.889562  0
C  C156  1  0.19132464  0.28460234  0.48502568  1  -0.035286  0  -0.064516  -0.081861  0  3.909137  0
C  C157  1  0.12487092  0.33396430  0.44476859  1  -0.031645  0  -0.021702  -0.048983  0  3.99029  0
C  C158  1  0.04582130  0.30884235  0.39424342  1  -0.059076  0  -0.073177  -0.133543  0  3.9072  0
C  C159  1  0.14921046  0.41313191  0.45541347  1  1.554921  0  0.214051  0.589465  0  4.180419  0
C  C160  1  0.24906101  0.15631824  0.51486527  1  1.476108  0  0.212398  0.58037  0  4.136142  0
C  C161  1  0.17742678  0.21050305  0.47424795  1  -0.014988  0  -0.016283  -0.036723  0  3.996988  0
C  C162  1  0.10016617  0.18599974  0.42297895  1  -0.071883  0  -0.073285  -0.131052  0  3.864598  0
C  C163  1  0.03455184  0.23471111  0.38237060  1  0.089349  0  -0.007783  0.162693  0  3.976156  0
C  C164  1  0.95852350  0.20745584  0.32694276  1  -0.052479  0  -0.237774  -0.410273  0  3.958459  0
C  C165  1  0.46345569  0.51807130  0.35602793  1  1.546806  0  0.21746  0.595183  0  4.176128  0
C  C166  1  0.56115349  0.50249132  0.30148154  1  -0.000247  0  -0.019359  -0.034137  0  3.997294  0
C  C167  1  0.73495446  0.47110682  0.30137844  1  -0.104018  0  -0.078481  -0.146916  0  3.88927  0
C  C168  1  0.30866589  0.78460112  0.51496714  1  -0.034643  0  -0.06455  -0.08189  0  3.909344  0
C  C169  1  0.37511950  0.83396529  0.55522128  1  -0.031105  0  -0.021657  -0.048779  0  3.990092  0
C  C170  1  0.45417051  0.80884660  0.60574793  1  -0.059924  0  -0.07324  -0.133793  0  3.907218  0
C  C171  1  0.35078822  0.91313120  0.54457619  1  1.554452  0  0.214236  0.589559  0  4.180364  0
C  C172  1  0.25093089  0.65631366  0.48513156  1  1.476183  0  0.212503  0.580624  0  4.135786  0
C  C173  1  0.32256255  0.71050343  0.52574930  1  -0.014848  0  -0.016255  -0.036761  0  3.99696  0
C  C174  1  0.39982866  0.68600120  0.57701891  1  -0.071991  0  -0.073319  -0.130919  0  3.864475  0
C  C175  1  0.46544149  0.73471476  0.61762347  1  0.08989  0  -0.007806  0.162659  0  3.975937  0
C  C176  1  0.54147908  0.70746276  0.67305332  1  -0.052758  0  -0.237743  -0.41014  0  3.958149  0
C  C177  1  0.03655747  0.01806969  0.64397172  1  1.546107  0  0.217366  0.594939  0  4.176497  0
C  C178  1  0.93886139  0.00248916  0.69851831  1  -7.1e-05  0  -0.019262  -0.033923  0  3.997278  0
C  C179  1  0.76505799  0.97110122  0.69862234  1  -0.104183  0  -0.078645  -0.147  0  3.889271  0
C  C180  1  0.47564140  0.51892253  0.24999863  1  -0.073592  0  -0.074719  -0.104616  0  3.927716  0
C  C181  1  0.82456027  0.45584260  0.24999808  1  0.031939  0  -0.009585  0.161718  0  3.98322  0
C  C182  1  0.01294965  0.42353248  0.24999796  1  -0.005697  0  -0.239437  -0.415578  0  3.950866  0
C  C183  1  0.02437045  0.01892269  0.75000143  1  -0.073672  0  -0.074714  -0.104674  0  3.928064  0
C  C184  1  0.67545273  0.95583070  0.75000069  1  0.032482  0  -0.009624  0.161355  0  3.983422  0
C  C185  1  0.48706999  0.92351671  0.75000099  1  -0.004601  0  -0.23914  -0.414794  0  3.950645  0
C  C186  1  0.52435673  0.48107650  0.74999898  1  -0.074097  0  -0.074715  -0.10471  0  3.927764  0
C  C187  1  0.17544466  0.54416130  0.75000379  1  0.032236  0  -0.009609  0.16162  0  3.983323  0
C  C188  1  0.98705800  0.57647901  0.75000774  1  -0.004964  0  -0.239308  -0.415136  0  3.950633  0
C  C189  1  0.97562224  0.98107146  0.25000087  1  -0.073266  0  -0.074706  -0.104564  0  3.927964  0
C  C190  1  0.32455900  0.04415045  0.25000288  1  0.031318  0  -0.009589  0.161867  0  3.983082  0
C  C191  1  0.51294174  0.07646335  0.25000429  1  -0.004978  0  -0.239428  -0.415535  0  3.95088  0
O  O192  1  0.24394509  0.43151504  0.00196099  1  -1.181452  0  -0.329029  -0.580233  0  2.307279  0
O  O193  1  0.07453110  0.45765526  0.08017679  1  -1.147906  0  -0.316377  -0.545281  0  2.302587  0
O  O194  1  0.21739510  0.08822002  0.99560836  1  -1.172431  0  -0.333973  -0.600966  0  2.457636  0
O  O195  1  0.34441619  0.17123086  0.94154316  1  -1.124022  0  -0.294438  -0.497049  0  2.109546  0
O  O196  1  0.52798258  0.49289551  0.09799031  1  -1.176818  0  -0.319199  -0.575011  0  2.300722  0
O  O197  1  0.31604113  0.55542693  0.14827735  1  -1.14937  0  -0.321373  -0.545158  0  2.290263  0
O  O198  1  0.25606409  0.93151414  0.99803534  1  -1.181247  0  -0.328978  -0.58017  0  2.30742  0
O  O199  1  0.42548219  0.95765953  0.91982444  1  -1.147954  0  -0.316396  -0.545363  0  2.302535  0
O  O200  1  0.28262313  0.58821599  0.00438859  1  -1.172387  0  -0.333998  -0.601018  0  2.457339  0
O  O201  1  0.15558466  0.67122072  0.05845184  1  -1.123708  0  -0.29441  -0.496967  0  2.109478  0
O  O202  1  0.97203239  0.99290310  0.90200901  1  -1.176806  0  -0.319223  -0.575083  0  2.300642  0
O  O203  1  0.18397809  0.05542875  0.85172028  1  -1.1495  0  -0.321514  -0.545274  0  2.290333  0
O  O204  1  0.75605627  0.56848233  0.50196723  1  -1.181179  0  -0.329  -0.580207  0  2.307216  0
O  O205  1  0.92546409  0.54234434  0.58018327  1  -1.148155  0  -0.316385  -0.54536  0  2.302669  0
O  O206  1  0.78265143  0.91177690  0.49560186  1  -1.172452  0  -0.333908  -0.60094  0  2.457576  0
O  O207  1  0.65556638  0.82877327  0.44154848  1  -1.12392  0  -0.294478  -0.497037  0  2.109725  0
O  O208  1  0.47196816  0.50710116  0.59798903  1  -1.176629  0  -0.319306  -0.575023  0  2.300273  0
O  O209  1  0.68392313  0.44456962  0.64827162  1  -1.149409  0  -0.321281  -0.545055  0  2.290202  0
O  O210  1  0.74394032  0.06848112  0.49803891  1  -1.181434  0  -0.329066  -0.580228  0  2.307094  0
O  O211  1  0.57451344  0.04234217  0.41982563  1  -1.147902  0  -0.316382  -0.545362  0  2.302531  0
O  O212  1  0.71734428  0.41178081  0.50439939  1  -1.172329  0  -0.333943  -0.600953  0  2.457522  0
O  O213  1  0.84442629  0.32877755  0.55845556  1  -1.123979  0  -0.294424  -0.497065  0  2.109653  0
O  O214  1  0.02796551  0.00710641  0.40200942  1  -1.176665  0  -0.319337  -0.575227  0  2.300574  0
O  O215  1  0.81601446  0.94457925  0.35172469  1  -1.149428  0  -0.321388  -0.545252  0  2.290665  0
O  O216  1  0.75605984  0.56848236  0.99804301  1  -1.181174  0  -0.329086  -0.580267  0  2.307147  0
O  O217  1  0.92547247  0.54234647  0.91982593  1  -1.147763  0  -0.316306  -0.545269  0  2.302626  0
O  O218  1  0.78264520  0.91178117  0.00439905  1  -1.172444  0  -0.33398  -0.601008  0  2.457534  0
O  O219  1  0.65556017  0.82877521  0.05845317  1  -1.123959  0  -0.29447  -0.497107  0  2.109494  0
O  O220  1  0.47205637  0.50710894  0.90200857  1  -1.176708  0  -0.31935  -0.575196  0  2.300607  0
O  O221  1  0.68398965  0.44458022  0.85171642  1  -1.149486  0  -0.321422  -0.545178  0  2.290441  0
O  O222  1  0.74394628  0.06848001  0.00196398  1  -1.18099  0  -0.328968  -0.580119  0  2.307298  0
O  O223  1  0.57453362  0.04234167  0.08017999  1  -1.14805  0  -0.316419  -0.545387  0  2.30262  0
O  O224  1  0.71735323  0.41177870  0.99560093  1  -1.172662  0  -0.333915  -0.600939  0  2.457708  0
O  O225  1  0.84442163  0.32877615  0.94154406  1  -1.123927  0  -0.294433  -0.497019  0  2.109621  0
O  O226  1  0.02797662  0.00709430  0.09799201  1  -1.176596  0  -0.319248  -0.575122  0  2.300593  0
O  O227  1  0.81601868  0.94457081  0.14828073  1  -1.149637  0  -0.321538  -0.54533  0  2.290437  0
O  O228  1  0.24392281  0.43152428  0.49803038  1  -1.181035  0  -0.328962  -0.58011  0  2.307343  0
O  O229  1  0.07451907  0.45766064  0.41981434  1  -1.14849  0  -0.31638  -0.545381  0  2.302496  0
O  O230  1  0.21736030  0.08822808  0.50439915  1  -1.172562  0  -0.333892  -0.600927  0  2.457536  0
O  O231  1  0.34443446  0.17123280  0.55845126  1  -1.123925  0  -0.294483  -0.497068  0  2.10962  0
O  O232  1  0.52797555  0.49289299  0.40200986  1  -1.176788  0  -0.319239  -0.575051  0  2.300659  0
O  O233  1  0.31604915  0.55543049  0.35172003  1  -1.149527  0  -0.32143  -0.545262  0  2.290088  0
O  O234  1  0.25607277  0.93152440  0.50195742  1  -1.181322  0  -0.329115  -0.580238  0  2.307296  0
O  O235  1  0.42548061  0.95766010  0.58017624  1  -1.148073  0  -0.316436  -0.54543  0  2.302398  0
O  O236  1  0.28264160  0.58822472  0.49559907  1  -1.172617  0  -0.333939  -0.601028  0  2.45764  0
O  O237  1  0.15555415  0.67122906  0.44154503  1  -1.124133  0  -0.29455  -0.497218  0  2.109393  0
O  O238  1  0.97202173  0.99289370  0.59798904  1  -1.176512  0  -0.319227  -0.57505  0  2.300572  0
O  O239  1  0.18396462  0.05542574  0.64827590  1  -1.149244  0  -0.32137  -0.545107  0  2.290487  0
