# generated using pymatgen
data_NiH2(CO2)2
_symmetry_space_group_name_H-M   'P 1'
_cell_length_a   9.75190120
_cell_length_b   11.11415162
_cell_length_c   14.33496475
_cell_angle_alpha   91.01850149
_cell_angle_beta   89.99986801
_cell_angle_gamma   90.00000349
_symmetry_Int_Tables_number   1
_chemical_formula_structural   NiH2(CO2)2
_chemical_formula_sum   'Ni12 H24 C24 O48'
_cell_volume   1553.43690522
_cell_formula_units_Z   12
loop_
 _symmetry_equiv_pos_site_id
 _symmetry_equiv_pos_as_xyz
  1  'x, y, z'
loop_
 _atom_site_type_symbol
 _atom_site_label
 _atom_site_symmetry_multiplicity
 _atom_site_fract_x
 _atom_site_fract_y
 _atom_site_fract_z
 _atom_site_occupancy
 _atom_site_pbe_bader_charge
 _atom_site_pbe_bader_spin_density
 _atom_site_pbe_cm5_charge
 _atom_site_pbe_ddec_charge
 _atom_site_pbe_ddec_spin_density
 _atom_site_pbe_ddec_sum_bond_order
 _atom_site_pbe_magmom
Ni  Ni0  1  0.92502722  0.24467455  0.36472005  1  1.252694  1.613205  0.645802  0.949914  1.797997  2.397176  1.603
Ni  Ni1  1  0.61690278  0.24071833  0.30899792  1  1.247023  1.596576  0.634524  0.915527  1.778501  2.424218  1.586
Ni  Ni2  1  0.42502459  0.25531949  0.13528069  1  1.252681  1.61321  0.645785  0.949819  1.797996  2.397269  1.603
Ni  Ni3  1  0.11689997  0.25928201  0.19100132  1  1.246994  1.596578  0.634531  0.915542  1.778504  2.424232  1.586
Ni  Ni4  1  0.07497408  0.75532252  0.63527943  1  1.252656  1.613208  0.645804  0.949891  1.797999  2.397196  1.603
Ni  Ni5  1  0.38310057  0.75928504  0.69100097  1  1.246979  1.596575  0.634513  0.915455  1.778503  2.424299  1.586
Ni  Ni6  1  0.57497157  0.74467667  0.86472017  1  1.252549  1.613205  0.645782  0.949858  1.797999  2.397199  1.603
Ni  Ni7  1  0.88309518  0.74071957  0.80899614  1  1.246984  1.596577  0.634531  0.91552  1.7785  2.424224  1.586
Ni  Ni8  1  0.00000225  0.50000301  0.50000404  1  1.252421  1.603069  0.633592  0.93388  1.788496  2.339476  1.593
Ni  Ni9  1  0.49999828  0.99999886  0.99999990  1  1.25245  1.60307  0.633532  0.93377  1.788495  2.339553  1.593
Ni  Ni10  1  0.00000326  0.00000469  0.49999835  1  1.256068  1.606709  0.639338  0.944368  1.793759  2.367125  1.597
Ni  Ni11  1  0.49999929  0.49999873  0.99999767  1  1.256202  1.606706  0.639339  0.944391  1.793761  2.367128  1.597
H  H12  1  0.70483406  0.99777334  0.49692995  1  0.144072  0.015177  0.126147  0.048888  0.007026  0.970283  0.009
H  H13  1  0.60137429  0.44057480  0.45542970  1  0.102614  0.01423  0.124248  0.045124  0.006488  0.976024  0.008
H  H14  1  0.20710072  0.01162656  0.25990319  1  0.10721  0.015088  0.119878  0.037479  0.006813  0.959294  0.009
H  H15  1  0.74945981  0.13897960  0.12201664  1  0.124621  0.013471  0.121667  0.045017  0.005963  1.009845  0.009
H  H16  1  0.16901530  0.31327684  0.57906861  1  0.122305  0.014099  0.122887  0.040243  0.006472  0.967614  0.008
H  H17  1  0.05835954  0.53131642  0.22512949  1  0.114252  0.014465  0.127954  0.049245  0.006594  0.944677  0.008
H  H18  1  0.20483187  0.50222818  0.00307084  1  0.144128  0.015178  0.126144  0.048878  0.007026  0.97025  0.009
H  H19  1  0.10137195  0.05942464  0.04457024  1  0.102659  0.014228  0.124222  0.045098  0.006487  0.976042  0.008
H  H20  1  0.70709660  0.48837199  0.24009309  1  0.107321  0.015088  0.119855  0.037472  0.006813  0.959206  0.009
H  H21  1  0.24945740  0.36101984  0.37798168  1  0.124677  0.013472  0.121673  0.04504  0.005963  1.009862  0.009
H  H22  1  0.66901569  0.18672475  0.92093409  1  0.122369  0.014099  0.122853  0.040136  0.006473  0.967681  0.008
H  H23  1  0.55836146  0.96868509  0.27487432  1  0.114189  0.014463  0.128021  0.049318  0.006593  0.944929  0.008
H  H24  1  0.29516723  0.00222822  0.50307240  1  0.144129  0.015177  0.12615  0.048865  0.007026  0.970286  0.009
H  H25  1  0.39862598  0.55942497  0.54457052  1  0.102655  0.014227  0.12425  0.04513  0.006488  0.97606  0.008
H  H26  1  0.79289956  0.98837320  0.74009843  1  0.107191  0.015087  0.119877  0.037458  0.006812  0.959281  0.009
H  H27  1  0.25054251  0.86102106  0.87798360  1  0.124604  0.013471  0.121666  0.045014  0.005963  1.009845  0.009
H  H28  1  0.83098599  0.68672292  0.42093161  1  0.12232  0.014097  0.122881  0.040223  0.006472  0.967662  0.008
H  H29  1  0.94164176  0.46868605  0.77486938  1  0.114221  0.014463  0.12797  0.049199  0.006593  0.944825  0.008
H  H30  1  0.79516635  0.49777429  0.99692803  1  0.144119  0.015176  0.126161  0.048891  0.007025  0.970281  0.009
H  H31  1  0.89862729  0.94057243  0.95542993  1  0.102604  0.014228  0.124238  0.045126  0.006488  0.976053  0.008
H  H32  1  0.29290059  0.51162869  0.75990366  1  0.107461  0.015087  0.119842  0.037451  0.006813  0.959262  0.009
H  H33  1  0.75054185  0.63897903  0.62201713  1  0.124624  0.013471  0.121683  0.045054  0.005962  1.009816  0.009
H  H34  1  0.33098766  0.81327771  0.07906826  1  0.122334  0.014099  0.122859  0.04021  0.006473  0.967652  0.008
H  H35  1  0.44163984  0.03131467  0.72512590  1  0.114161  0.014464  0.128003  0.049254  0.006593  0.944873  0.008
C  C36  1  0.72276908  0.07162032  0.44812074  1  1.520527  -0.004213  0.165196  0.5211  -0.006184  4.103464  -0.005
C  C37  1  0.71315455  0.42576406  0.44924264  1  1.563494  -0.002697  0.168008  0.51429  -0.00403  4.122639  -0.003
C  C38  1  0.13481728  0.04205623  0.31508594  1  1.544269  -0.003373  0.164358  0.51626  -0.004834  4.147875  -0.004
C  C39  1  0.83396633  0.17102809  0.16713558  1  1.537201  -0.001988  0.162282  0.518894  -0.003382  4.098415  -0.003
C  C40  1  0.10548931  0.25646661  0.53233653  1  1.518257  -0.002518  0.16597  0.530677  -0.003724  4.118285  -0.003
C  C41  1  0.02491467  0.48522011  0.28899555  1  1.522773  -0.000671  0.166547  0.512195  -0.001487  4.142449  -0.001
C  C42  1  0.22277085  0.42838001  0.05188043  1  1.520114  -0.004213  0.165277  0.521247  -0.006186  4.103314  -0.005
C  C43  1  0.21314912  0.07423358  0.05075640  1  1.56386  -0.002696  0.16802  0.514249  -0.00403  4.122562  -0.003
C  C44  1  0.63481028  0.45793781  0.18491247  1  1.544071  -0.003374  0.164333  0.516295  -0.004832  4.147917  -0.004
C  C45  1  0.33396510  0.32897046  0.33286050  1  1.537205  -0.00199  0.162344  0.51884  -0.003384  4.098314  -0.003
C  C46  1  0.60548646  0.24353499  0.96766558  1  1.518565  -0.002514  0.165984  0.530858  -0.003721  4.118342  -0.003
C  C47  1  0.52491472  0.01477840  0.21101077  1  1.52263  -0.000672  0.166467  0.512053  -0.001488  4.142993  -0.001
C  C48  1  0.27722914  0.92837945  0.55188018  1  1.520411  -0.004215  0.165251  0.521223  -0.006186  4.103333  -0.005
C  C49  1  0.28684777  0.57423750  0.55075900  1  1.563926  -0.002696  0.167942  0.514114  -0.00403  4.122688  -0.003
C  C50  1  0.86518401  0.95794082  0.68491633  1  1.544031  -0.003373  0.164463  0.516436  -0.004832  4.147899  -0.004
C  C51  1  0.16603599  0.82897258  0.83286326  1  1.537202  -0.00199  0.162341  0.518919  -0.003385  4.098284  -0.003
C  C52  1  0.89450994  0.74353676  0.46766305  1  1.518537  -0.002515  0.165979  0.530713  -0.003719  4.118244  -0.003
C  C53  1  0.97508560  0.51477875  0.71100605  1  1.522715  -0.00067  0.166531  0.512176  -0.001486  4.14272  -0.001
C  C54  1  0.77723250  0.57162155  0.94811983  1  1.520446  -0.004213  0.165173  0.521129  -0.006183  4.103506  -0.005
C  C55  1  0.78684807  0.92576169  0.94924235  1  1.563936  -0.002696  0.167946  0.514092  -0.00403  4.122687  -0.003
C  C56  1  0.36518487  0.54206287  0.81508568  1  1.543754  -0.003375  0.164403  0.516325  -0.004835  4.147997  -0.004
C  C57  1  0.66603312  0.67102752  0.66713621  1  1.537221  -0.001989  0.162289  0.518867  -0.003383  4.098248  -0.003
C  C58  1  0.39451279  0.75646568  0.03233466  1  1.518569  -0.002516  0.166004  0.530757  -0.003722  4.11837  -0.003
C  C59  1  0.47508862  0.98522226  0.78899016  1  1.522662  -0.000672  0.166517  0.512193  -0.001488  4.142846  -0.001
O  O60  1  0.84866865  0.10414763  0.43814483  1  -1.130127  0.115426  -0.306711  -0.53521  0.064316  2.595144  0.109
O  O61  1  0.61987742  0.11453136  0.40778729  1  -1.141695  0.079766  -0.302743  -0.486138  0.043521  2.385749  0.073
O  O62  1  0.80518103  0.18849585  0.25392317  1  -1.147616  0.110663  -0.314907  -0.541477  0.061576  2.602303  0.103
O  O63  1  0.74945527  0.34730513  0.38688240  1  -1.150654  0.113041  -0.310019  -0.545399  0.063014  2.612269  0.105
O  O64  1  0.08792286  0.14943956  0.30602717  1  -1.147128  0.109633  -0.311662  -0.550092  0.061008  2.613608  0.102
O  O65  1  0.01060157  0.37044955  0.28050938  1  -1.12326  0.114811  -0.315853  -0.544979  0.064135  2.657368  0.107
O  O66  1  0.02708316  0.31450473  0.47613642  1  -1.143372  0.116816  -0.310412  -0.54784  0.065088  2.604473  0.11
O  O67  1  0.94895013  0.18545029  0.12937160  1  -1.134651  0.078249  -0.299434  -0.484334  0.042678  2.38374  0.071
O  O68  1  0.00410938  0.54713653  0.36136465  1  -1.14464  0.070197  -0.294928  -0.48874  0.03831  2.411119  0.064
O  O69  1  0.79135050  0.48611141  0.50128039  1  -1.15247  0.070138  -0.293452  -0.486126  0.038665  2.426532  0.064
O  O70  1  0.10839262  0.97085804  0.37911876  1  -1.139352  0.069466  -0.293733  -0.476928  0.038099  2.391433  0.064
O  O71  1  0.11731468  0.14485290  0.53788165  1  -1.120586  0.066046  -0.298097  -0.496744  0.036245  2.424897  0.06
O  O72  1  0.34866936  0.39585091  0.06185471  1  -1.129848  0.115426  -0.306728  -0.535238  0.064318  2.5951  0.109
O  O73  1  0.11987700  0.38546807  0.09221332  1  -1.14159  0.079772  -0.302797  -0.486242  0.043524  2.38567  0.073
O  O74  1  0.30517906  0.31150089  0.24607502  1  -1.147695  0.110662  -0.314939  -0.541436  0.061575  2.602318  0.103
O  O75  1  0.24945066  0.15269521  0.11311593  1  -1.150455  0.113045  -0.309991  -0.545316  0.063015  2.612231  0.105
O  O76  1  0.58791786  0.35055807  0.19397276  1  -1.147043  0.10963  -0.311549  -0.549956  0.061005  2.613785  0.102
O  O77  1  0.51060058  0.12954897  0.21949279  1  -1.123254  0.114814  -0.315804  -0.544865  0.064137  2.657442  0.107
O  O78  1  0.52708180  0.18549470  0.02386504  1  -1.143743  0.116816  -0.3104  -0.547815  0.065089  2.604436  0.11
O  O79  1  0.44895082  0.31454916  0.37062571  1  -1.13458  0.078253  -0.299479  -0.48433  0.042681  2.383592  0.071
O  O80  1  0.50410560  0.95286136  0.13864198  1  -1.144515  0.0702  -0.294908  -0.488696  0.038312  2.411303  0.064
O  O81  1  0.29134765  0.01388749  0.99872069  1  -1.152991  0.070135  -0.293452  -0.486097  0.038664  2.426499  0.064
O  O82  1  0.60837862  0.52913630  0.12087857  1  -1.139428  0.069466  -0.293787  -0.477073  0.038098  2.391389  0.064
O  O83  1  0.61731186  0.35514599  0.96212249  1  -1.120651  0.066043  -0.298083  -0.496839  0.03624  2.425047  0.06
O  O84  1  0.15132957  0.89585483  0.56185613  1  -1.130137  0.115421  -0.306742  -0.535259  0.064314  2.595173  0.109
O  O85  1  0.38012491  0.88546841  0.59221223  1  -1.141597  0.079771  -0.302776  -0.486219  0.043523  2.385609  0.073
O  O86  1  0.19482129  0.81150482  0.74607567  1  -1.147633  0.110666  -0.31494  -0.541496  0.061578  2.602316  0.103
O  O87  1  0.25054603  0.65269463  0.61311852  1  -1.150541  0.113038  -0.309949  -0.545209  0.063012  2.612188  0.105
O  O88  1  0.91207536  0.85055750  0.69397300  1  -1.146912  0.109634  -0.311696  -0.550124  0.061008  2.613599  0.102
O  O89  1  0.98939767  0.62954933  0.71948664  1  -1.123237  0.114813  -0.315861  -0.544928  0.064135  2.657343  0.107
O  O90  1  0.97291507  0.68549594  0.52386382  1  -1.143828  0.116826  -0.310409  -0.547806  0.065093  2.604568  0.11
O  O91  1  0.05105117  0.81454768  0.87062720  1  -1.134536  0.078251  -0.29946  -0.484336  0.042681  2.383591  0.071
O  O92  1  0.99589397  0.45286321  0.63864046  1  -1.144606  0.070197  -0.294895  -0.488656  0.03831  2.411317  0.064
O  O93  1  0.20864875  0.51388834  0.49872263  1  -1.152943  0.070147  -0.293456  -0.486096  0.03867  2.426569  0.064
O  O94  1  0.89161381  0.02914082  0.62088353  1  -1.139313  0.069465  -0.293796  -0.477051  0.038098  2.391465  0.064
O  O95  1  0.88268867  0.85514956  0.46212071  1  -1.120509  0.066038  -0.298109  -0.496805  0.036237  2.424766  0.06
O  O96  1  0.65133399  0.60414977  0.93814343  1  -1.130121  0.115429  -0.306695  -0.535214  0.064318  2.595107  0.109
O  O97  1  0.88012328  0.61453350  0.90778693  1  -1.141626  0.079765  -0.302755  -0.486188  0.04352  2.385771  0.073
O  O98  1  0.69481608  0.68849618  0.75392446  1  -1.14761  0.110667  -0.314942  -0.541537  0.061577  2.602289  0.103
O  O99  1  0.75054756  0.84730367  0.88688218  1  -1.150545  0.113043  -0.309941  -0.545189  0.063014  2.612217  0.105
O  O100  1  0.41207318  0.64944531  0.80602473  1  -1.146849  0.109632  -0.311624  -0.549991  0.061007  2.613704  0.102
O  O101  1  0.48939969  0.87045168  0.78050954  1  -1.123159  0.114815  -0.315813  -0.544878  0.064137  2.657409  0.107
O  O102  1  0.47291642  0.81450686  0.97613521  1  -1.143751  0.116817  -0.310438  -0.547814  0.065089  2.604531  0.11
O  O103  1  0.55104946  0.68544882  0.62937099  1  -1.134678  0.07825  -0.299404  -0.48427  0.042679  2.383639  0.071
O  O104  1  0.49589774  0.04714020  0.86135828  1  -1.144534  0.070201  -0.294942  -0.48877  0.038312  2.411248  0.064
O  O105  1  0.70864954  0.98610867  0.00128017  1  -1.152933  0.070141  -0.293444  -0.486047  0.038667  2.426458  0.064
O  O106  1  0.39161652  0.47086258  0.87911815  1  -1.139331  0.069464  -0.293779  -0.47704  0.038097  2.391488  0.064
O  O107  1  0.38268841  0.64485288  0.03787702  1  -1.120633  0.066042  -0.298088  -0.496817  0.03624  2.424993  0.06
