# generated using pymatgen
data_Yb2H20C28N2O17
_symmetry_space_group_name_H-M   'P 1'
_cell_length_a   10.19764797
_cell_length_b   11.86615729
_cell_length_c   12.73929278
_cell_angle_alpha   75.99264941
_cell_angle_beta   77.04420601
_cell_angle_gamma   72.34416354
_symmetry_Int_Tables_number   1
_chemical_formula_structural   Yb2H20C28N2O17
_chemical_formula_sum   'Yb4 H40 C56 N4 O34'
_cell_volume   1406.16723917
_cell_formula_units_Z   2
loop_
 _symmetry_equiv_pos_site_id
 _symmetry_equiv_pos_as_xyz
  1  'x, y, z'
loop_
 _atom_site_type_symbol
 _atom_site_label
 _atom_site_symmetry_multiplicity
 _atom_site_fract_x
 _atom_site_fract_y
 _atom_site_fract_z
 _atom_site_occupancy
 _atom_site_hle17_bader_spin_density
 _atom_site_hle17_ddec_charge
 _atom_site_hle17_ddec_spin_density
 _atom_site_hle17_ddec_sum_bond_order
 _atom_site_hle17_magmom
 _atom_site_hse06_10hf_bader_spin_density
 _atom_site_hse06_10hf_ddec_charge
 _atom_site_hse06_10hf_ddec_spin_density
 _atom_site_hse06_10hf_ddec_sum_bond_order
 _atom_site_hse06_10hf_magmom
 _atom_site_hse06_bader_spin_density
 _atom_site_hse06_ddec_charge
 _atom_site_hse06_ddec_spin_density
 _atom_site_hse06_ddec_sum_bond_order
 _atom_site_hse06_magmom
 _atom_site_pbe_bader_spin_density
 _atom_site_pbe_cm5_charge
 _atom_site_pbe_ddec_charge
 _atom_site_pbe_ddec_spin_density
 _atom_site_pbe_ddec_sum_bond_order
 _atom_site_pbe_magmom
Yb  Yb0  1  0.80113503  0.78030693  0.44967008  1  0  2.180303  0  1.753658  0  0  2.104841  0  2.101798  0  0  2.160782  0  2.056637  0  0  1.577366  2.070967  0  2.129098  0
Yb  Yb1  1  0.19886502  0.21969231  0.55032881  1  0  2.180293  0  1.753675  0  0  2.104802  0  2.101869  0  0  2.160766  0  2.056662  0  0  1.577346  2.070928  0  2.12917  0
Yb  Yb2  1  0.21140605  0.71869019  0.60658888  1  0  2.163474  0  1.774767  0  0  2.09314  0  2.101973  0  0  2.153338  0  2.044231  0  0  1.569409  2.0573  0  2.130431  0
Yb  Yb3  1  0.78859336  0.28131082  0.39341003  1  0  2.16347  0  1.774765  0  0  2.093133  0  2.101985  0  0  2.15334  0  2.04423  0  0  1.56941  2.057292  0  2.130447  0
H  H4  1  0.68488684  0.95756552  0.27043013  1  0  0.438901  0  0.863283  0  0  0.407144  0  0.928244  0  0  0.419697  0  0.910117  0  0  0.293087  0.398647  0  0.940585  0
H  H5  1  0.31511271  0.04243443  0.72956959  1  0  0.43889  0  0.863298  0  0  0.407131  0  0.928263  0  0  0.419683  0  0.910137  0  0  0.293085  0.398633  0  0.940605  0
H  H6  1  0.69098238  0.03050009  0.36037485  1  0  0.439033  0  0.863053  0  0  0.40997  0  0.923112  0  0  0.422175  0  0.905538  0  0  0.299378  0.401885  0  0.934806  0
H  H7  1  0.30901848  0.96949899  0.63962487  1  0  0.439029  0  0.863052  0  0  0.409963  0  0.923115  0  0  0.422168  0  0.905541  0  0  0.299381  0.401879  0  0.934809  0
H  H8  1  0.89293693  0.92067046  0.57171707  1  0  0.447401  0  0.848897  0  0  0.415391  0  0.914508  0  0  0.426645  0  0.898223  0  0  0.304058  0.407965  0  0.925334  0
H  H9  1  0.10706309  0.07932755  0.42828346  1  0  0.447401  0  0.84889  0  0  0.415389  0  0.914503  0  0  0.426643  0  0.898217  0  0  0.30405  0.407963  0  0.92533  0
H  H10  1  0.74169541  0.99462427  0.55386345  1  0  0.45367  0  0.804385  0  0  0.431218  0  0.86509  0  0  0.440925  0  0.851094  0  0  0.323726  0.424929  0  0.872539  0
H  H11  1  0.25830478  0.00537392  0.44613626  1  0  0.453628  0  0.804462  0  0  0.43117  0  0.865176  0  0  0.440876  0  0.851169  0  0  0.323695  0.424881  0  0.872624  0
H  H12  1  0.12395684  0.53916150  0.53628187  1  0  0.453306  0  0.825253  0  0  0.42536  0  0.890563  0  0  0.435663  0  0.875514  0  0  0.316258  0.418402  0  0.900734  0
H  H13  1  0.87604401  0.46083758  0.46371785  1  0  0.453331  0  0.825214  0  0  0.425385  0  0.890526  0  0  0.43569  0  0.875475  0  0  0.316264  0.418427  0  0.900696  0
H  H14  1  0.28293316  0.49298396  0.52933252  1  0  0.447901  0  0.840822  0  0  0.420609  0  0.900074  0  0  0.431936  0  0.883577  0  0  0.310255  0.412965  0  0.911263  0
H  H15  1  0.71706867  0.50701512  0.47066721  1  0  0.447823  0  0.840915  0  0  0.420555  0  0.900131  0  0  0.431878  0  0.883643  0  0  0.310257  0.412912  0  0.911318  0
H  H16  1  0.99352256  0.13119485  0.06659465  1  0  0.097503  0  0.976042  0  0  0.107763  0  1.040459  0  0  0.110464  0  1.039102  0  0  0.107074  0.10584  0  1.041498  0
H  H17  1  0.00647522  0.86880792  0.93340427  1  0  0.097541  0  0.976033  0  0  0.107812  0  1.04044  0  0  0.110515  0  1.039077  0  0  0.107084  0.105889  0  1.041479  0
H  H18  1  0.17879593  0.01238137  0.93874006  1  0  0.11562  0  0.935881  0  0  0.125834  0  0.990956  0  0  0.12947  0  0.989073  0  0  0.113029  0.123244  0  0.992393  0
H  H19  1  0.82120475  0.98762019  0.06126050  1  0  0.115627  0  0.935857  0  0  0.125841  0  0.990931  0  0  0.129477  0  0.989049  0  0  0.113042  0.123251  0  0.992368  0
H  H20  1  0.34271350  0.82401701  0.01864923  1  0  0.0957  0  0.984402  0  0  0.104323  0  1.05047  0  0  0.106411  0  1.05094  0  0  0.103664  0.102791  0  1.050305  0
H  H21  1  0.65728751  0.17598367  0.98135133  1  0  0.095653  0  0.98444  0  0  0.104312  0  1.050474  0  0  0.106401  0  1.050944  0  0  0.10367  0.10278  0  1.050307  0
H  H22  1  0.39803999  0.43796983  0.32653559  1  0  0.132166  0  0.955713  0  0  0.140059  0  1.017845  0  0  0.144228  0  1.015847  0  0  0.115506  0.137073  0  1.019358  0
H  H23  1  0.60195599  0.56203187  0.67346412  1  0  0.132162  0  0.955736  0  0  0.140076  0  1.017857  0  0  0.144244  0  1.01586  0  0  0.115511  0.137091  0  1.019369  0
H  H24  1  0.21475054  0.62467560  0.28954373  1  0  0.105337  0  0.945063  0  0  0.113362  0  1.008609  0  0  0.115824  0  1.006429  0  0  0.12999  0.111649  0  1.01006  0
H  H25  1  0.78524694  0.37532928  0.71045355  1  0  0.105342  0  0.945013  0  0  0.113367  0  1.00855  0  0  0.115829  0  1.006371  0  0  0.130001  0.111655  0  1.01  0
H  H26  1  0.50567373  0.82877002  0.17192128  1  0  0.111289  0  0.964108  0  0  0.115669  0  1.031224  0  0  0.120216  0  1.026415  0  0  0.124695  0.112242  0  1.034719  0
H  H27  1  0.49432794  0.17123155  0.82807928  1  0  0.111242  0  0.964092  0  0  0.115615  0  1.03123  0  0  0.12016  0  1.026423  0  0  0.124674  0.112188  0  1.034725  0
H  H28  1  0.70211025  0.64864726  0.20413376  1  0  0.142449  0  0.935239  0  0  0.152724  0  0.990234  0  0  0.156606  0  0.989144  0  0  0.118514  0.150193  0  0.990812  0
H  H29  1  0.29789089  0.35135378  0.79586927  1  0  0.142411  0  0.935251  0  0  0.152668  0  0.990279  0  0  0.156527  0  0.98922  0  0  0.118492  0.150137  0  0.990857  0
H  H30  1  0.02701176  0.24819457  0.91118922  1  0  0.106213  0  0.95685  0  0  0.116818  0  1.017116  0  0  0.120261  0  1.014852  0  0  0.108376  0.114476  0  1.018593  0
H  H31  1  0.97298555  0.75180749  0.08880886  1  0  0.106223  0  0.956814  0  0  0.116824  0  1.01709  0  0  0.120266  0  1.014825  0  0  0.108353  0.114482  0  1.018567  0
H  H32  1  0.85462055  0.31900027  0.07418913  1  0  0.119006  0  0.966024  0  0  0.126301  0  1.028119  0  0  0.130712  0  1.024856  0  0  0.107903  0.123195  0  1.030476  0
H  H33  1  0.14537930  0.68099757  0.92581222  1  0  0.11903  0  0.96604  0  0  0.126307  0  1.028154  0  0  0.130717  0  1.024896  0  0  0.107899  0.123201  0  1.030513  0
H  H34  1  0.69382687  0.52605128  0.04554143  1  0  0.103532  0  0.965728  0  0  0.112837  0  1.029542  0  0  0.115562  0  1.028627  0  0  0.104477  0.110805  0  1.030388  0
H  H35  1  0.30617283  0.47394762  0.95445911  1  0  0.103556  0  0.965712  0  0  0.112855  0  1.029531  0  0  0.115581  0  1.028615  0  0  0.104478  0.11082  0  1.030383  0
H  H36  1  0.35875028  0.81681090  0.81365055  1  0  0.145026  0  0.940845  0  0  0.153521  0  0.999428  0  0  0.157895  0  0.997783  0  0  0.118362  0.150593  0  1.000473  0
H  H37  1  0.64125370  0.18318961  0.18634673  1  0  0.145109  0  0.940833  0  0  0.153575  0  0.99944  0  0  0.157949  0  0.997796  0  0  0.118381  0.150647  0  1.000486  0
H  H38  1  0.53122444  0.61700695  0.84497091  1  0  0.087247  0  0.962403  0  0  0.097574  0  1.026166  0  0  0.099616  0  1.024779  0  0  0.122205  0.096009  0  1.027278  0
H  H39  1  0.46877839  0.38299338  0.15502718  1  0  0.087255  0  0.96236  0  0  0.097582  0  1.026115  0  0  0.099632  0  1.024717  0  0  0.122197  0.096015  0  1.027229  0
H  H40  1  0.83444022  0.76738408  0.87944994  1  0  0.100248  0  0.929764  0  0  0.111191  0  0.989637  0  0  0.113424  0  0.987868  0  0  0.128182  0.109625  0  0.990808  0
H  H41  1  0.16555994  0.23261695  0.12055308  1  0  0.100268  0  0.929751  0  0  0.111215  0  0.989619  0  0  0.113447  0  0.987846  0  0  0.128193  0.109622  0  0.990823  0
H  H42  1  0.67303653  0.97395663  0.85597979  1  0  0.10789  0  1.019081  0  0  0.115723  0  1.084833  0  0  0.117362  0  1.087982  0  0  0.101884  0.114528  0  1.082887  0
H  H43  1  0.32696382  0.02604315  0.14402075  1  0  0.107867  0  1.019066  0  0  0.115702  0  1.084809  0  0  0.117342  0  1.087958  0  0  0.101858  0.114507  0  1.082863  0
C  C44  1  0.12169608  0.84397270  0.37690415  1  0  0.737116  0  3.863315  0  0  0.686407  0  4.166899  0  0  0.724689  0  4.151372  0  0  0.232418  0.661484  0  4.17654  0
C  C45  1  0.87830445  0.15602726  0.62309557  1  0  0.737043  0  3.863349  0  0  0.686337  0  4.16693  0  0  0.724621  0  4.151399  0  0  0.232393  0.661411  0  4.176576  0
C  C46  1  0.95204017  0.09725254  0.28001902  1  0  0.658085  0  3.889324  0  0  0.60656  0  4.191602  0  0  0.641298  0  4.183416  0  0  0.203775  0.583314  0  4.196717  0
C  C47  1  0.04795888  0.90274546  0.71998150  1  0  0.658038  0  3.889375  0  0  0.606533  0  4.191631  0  0  0.641271  0  4.183447  0  0  0.203776  0.583288  0  4.196745  0
C  C48  1  0.13972284  0.90003765  0.25692251  1  0  -0.093526  0  3.624815  0  0  -0.087891  0  3.86111  0  0  -0.089313  0  3.875341  0  0  0.011795  -0.086705  0  3.850869  0
C  C49  1  0.86027459  0.09996212  0.74307801  1  0  -0.093568  0  3.624792  0  0  -0.087932  0  3.861098  0  0  -0.089355  0  3.875328  0  0  0.011792  -0.086746  0  3.850857  0
C  C50  1  0.05092533  0.00957896  0.21182940  1  0  -0.049145  0  3.681975  0  0  -0.033049  0  3.913018  0  0  -0.038596  0  3.932272  0  0  -0.000208  -0.029298  0  3.899655  0
C  C51  1  0.94907422  0.99042099  0.78817032  1  0  -0.048994  0  3.681881  0  0  -0.032911  0  3.912924  0  0  -0.038458  0  3.93218  0  0  -0.000166  -0.029159  0  3.89956  0
C  C52  1  0.06490287  0.04709736  0.09793929  1  0  -0.070844  0  3.733083  0  0  -0.097394  0  3.982171  0  0  -0.097213  0  4.001958  0  0  -0.076532  -0.097562  0  3.968761  0
C  C53  1  0.93509636  0.95290347  0.90206044  1  0  -0.07096  0  3.733127  0  0  -0.097526  0  3.982217  0  0  -0.097343  0  4.002001  0  0  -0.076594  -0.097695  0  3.968812  0
C  C54  1  0.16707642  0.98110209  0.02721095  1  0  -0.049008  0  3.740911  0  0  -0.062262  0  3.994995  0  0  -0.064313  0  4.014114  0  0  -0.08106  -0.060894  0  3.982097  0
C  C55  1  0.83292477  0.01889876  0.97278879  1  0  -0.049074  0  3.740896  0  0  -0.062323  0  3.994988  0  0  -0.064375  0  4.014107  0  0  -0.081098  -0.060955  0  3.982091  0
C  C56  1  0.25912530  0.87618496  0.07137772  1  0  -0.120297  0  3.738747  0  0  -0.146095  0  3.99649  0  0  -0.146981  0  4.015331  0  0  -0.080813  -0.145513  0  3.983912  0
C  C57  1  0.74087603  0.12381483  0.92862283  1  0  -0.12017  0  3.738671  0  0  -0.145997  0  3.996409  0  0  -0.146882  0  4.01525  0  0  -0.080786  -0.145412  0  3.983828  0
C  C58  1  0.24635494  0.83714890  0.18481674  1  0  0.132183  0  3.728812  0  0  0.117402  0  3.983681  0  0  0.120948  0  4.005475  0  0  0.094241  0.115028  0  3.96877  0
C  C59  1  0.75364560  0.16285372  0.81518301  1  0  0.132167  0  3.728704  0  0  0.117371  0  3.9836  0  0  0.120917  0  4.005393  0  0  0.094242  0.114998  0  3.968688  0
C  C60  1  0.42855267  0.52081645  0.28927894  1  0  -0.243897  0  3.67181  0  0  -0.262708  0  3.932612  0  0  -0.275494  0  3.948685  0  0  -0.095108  -0.254317  0  3.921464  0
C  C61  1  0.57144591  0.47918615  0.71072080  1  0  -0.243878  0  3.671875  0  0  -0.262716  0  3.93268  0  0  -0.2755  0  3.948752  0  0  -0.095097  -0.254324  0  3.921528  0
C  C62  1  0.32425301  0.62399102  0.26930758  1  0  0.12761  0  3.629319  0  0  0.082579  0  3.887148  0  0  0.094875  0  3.901752  0  0  0.05716  0.074771  0  3.876914  0
C  C63  1  0.67574557  0.37601158  0.73069216  1  0  0.127677  0  3.629271  0  0  0.082653  0  3.88712  0  0  0.094948  0  3.901723  0  0  0.057184  0.074847  0  3.876885  0
C  C64  1  0.48873160  0.73892669  0.20092544  1  0  0.10164  0  3.621399  0  0  0.058693  0  3.877079  0  0  0.070521  0  3.888673  0  0  0.049825  0.051594  0  3.86885  0
C  C65  1  0.51126694  0.26107611  0.79907759  1  0  0.101707  0  3.621378  0  0  0.058769  0  3.877039  0  0  0.070598  0  3.888622  0  0  0.049841  0.05167  0  3.868811  0
C  C66  1  0.59658377  0.63831590  0.21956283  1  0  -0.229081  0  3.662711  0  0  -0.247687  0  3.920329  0  0  -0.25948  0  3.936061  0  0  -0.09282  -0.240169  0  3.909271  0
C  C67  1  0.40341727  0.36168601  0.78043609  1  0  -0.229006  0  3.662637  0  0  -0.247593  0  3.92025  0  0  -0.259369  0  3.935992  0  0  -0.092783  -0.240074  0  3.90919  0
C  C68  1  0.57222857  0.52197708  0.26278430  1  0  0.466976  0  3.850362  0  0  0.452333  0  4.114256  0  0  0.477782  0  4.118602  0  0  0.121392  0.435903  0  4.110561  0
C  C69  1  0.42776966  0.47802517  0.73721708  1  0  0.466967  0  3.850312  0  0  0.452328  0  4.114206  0  0  0.47778  0  4.118543  0  0  0.121409  0.435898  0  4.110513  0
C  C70  1  0.52363506  0.69767660  0.49439893  1  0  0.551701  0  3.939833  0  0  0.506065  0  4.24434  0  0  0.537135  0  4.234885  0  0  0.210465  0.485666  0  4.251069  0
C  C71  1  0.47636597  0.30232265  0.50559997  1  0  0.551736  0  3.939814  0  0  0.506083  0  4.244362  0  0  0.537153  0  4.234909  0  0  0.210452  0.48567  0  4.251116  0
C  C72  1  0.48407927  0.81059961  0.54539204  1  0  0.565366  0  3.915776  0  0  0.519213  0  4.219659  0  0  0.550999  0  4.208761  0  0  0.219049  0.498457  0  4.227222  0
C  C73  1  0.51592093  0.18939857  0.45460767  1  0  0.565206  0  3.915828  0  0  0.519033  0  4.219759  0  0  0.550824  0  4.208859  0  0  0.218994  0.498281  0  4.227322  0
C  C74  1  0.90445170  0.62507772  0.68273834  1  0  0.748357  0  3.853808  0  0  0.700505  0  4.153504  0  0  0.738993  0  4.137252  0  0  0.238467  0.675321  0  4.163698  0
C  C75  1  0.09554916  0.37492135  0.31726138  1  0  0.748354  0  3.853738  0  0  0.700511  0  4.153418  0  0  0.738984  0  4.13719  0  0  0.238426  0.675327  0  4.163609  0
C  C76  1  0.06241428  0.35904726  0.70803229  1  0  0.630717  0  3.93483  0  0  0.581508  0  4.237524  0  0  0.616163  0  4.230104  0  0  0.190871  0.558905  0  4.241892  0
C  C77  1  0.93758250  0.64095427  0.29196826  1  0  0.630695  0  3.935029  0  0  0.581467  0  4.237759  0  0  0.616121  0  4.230339  0  0  0.19083  0.558862  0  4.242125  0
C  C78  1  0.88468971  0.53370898  0.78714020  1  0  -0.097841  0  3.647594  0  0  -0.094209  0  3.884894  0  0  -0.095334  0  3.899684  0  0  0.006987  -0.093165  0  3.874223  0
C  C79  1  0.11530887  0.46629097  0.21285952  1  0  -0.097772  0  3.647598  0  0  -0.094146  0  3.884886  0  0  -0.095268  0  3.899681  0  0  0.007017  -0.093103  0  3.874215  0
C  C80  1  0.96998533  0.41475811  0.80170411  1  0  -0.066785  0  3.721544  0  0  -0.051135  0  3.95708  0  0  -0.056985  0  3.976504  0  0  -0.010074  -0.046704  0  3.942761  0
C  C81  1  0.03001209  0.58524165  0.19829642  1  0  -0.066744  0  3.721483  0  0  -0.051088  0  3.957022  0  0  -0.056938  0  3.976445  0  0  -0.010028  -0.046656  0  3.942701  0
C  C82  1  0.95840854  0.33918627  0.90471674  1  0  -0.067123  0  3.725233  0  0  -0.095924  0  3.979414  0  0  -0.095302  0  3.998916  0  0  -0.081263  -0.096018  0  3.965821  0
C  C83  1  0.04158776  0.66081454  0.09528297  1  0  -0.067117  0  3.725187  0  0  -0.095923  0  3.97937  0  0  -0.095302  0  3.998872  0  0  -0.081237  -0.096015  0  3.965773  0
C  C84  1  0.86176694  0.37762919  0.99371990  1  0  -0.063379  0  3.74037  0  0  -0.075918  0  3.993851  0  0  -0.078607  0  4.012834  0  0  -0.088242  -0.074306  0  3.98125  0
C  C85  1  0.13823244  0.62237058  0.00628064  1  0  -0.063452  0  3.740443  0  0  -0.075979  0  3.993937  0  0  -0.078669  0  4.01292  0  0  -0.088272  -0.074368  0  3.981334  0
C  C86  1  0.77193252  0.49307443  0.97834001  1  0  -0.112179  0  3.728478  0  0  -0.137507  0  3.981988  0  0  -0.137462  0  4.000148  0  0  -0.080925  -0.137378  0  3.969896  0
C  C87  1  0.22806670  0.50692375  0.02165969  1  0  -0.112207  0  3.728406  0  0  -0.137537  0  3.981901  0  0  -0.137492  0  4.00006  0  0  -0.080917  -0.137406  0  3.969812  0
C  C88  1  0.78374419  0.56875323  0.87611559  1  0  0.122277  0  3.772047  0  0  0.109752  0  4.026723  0  0  0.112153  0  4.050282  0  0  0.08747  0.108024  0  4.01081  0
C  C89  1  0.21625533  0.43124549  0.12388577  1  0  0.122252  0  3.772097  0  0  0.109747  0  4.026746  0  0  0.112147  0  4.050307  0  0  0.087463  0.10802  0  4.01083  0
C  C90  1  0.46204325  0.81055306  0.82886266  1  0  -0.245597  0  3.673147  0  0  -0.26098  0  3.929564  0  0  -0.273238  0  3.94558  0  0  -0.097796  -0.252949  0  3.918375  0
C  C91  1  0.53795761  0.18944867  0.17113708  1  0  -0.245699  0  3.673194  0  0  -0.261035  0  3.929651  0  0  -0.273293  0  3.945668  0  0  -0.097785  -0.253008  0  3.91846  0
C  C92  1  0.55524831  0.70010179  0.84538130  1  0  0.098759  0  3.677435  0  0  0.054032  0  3.934083  0  0  0.066436  0  3.947235  0  0  0.044899  0.046233  0  3.924842  0
C  C93  1  0.44475552  0.29989712  0.15461515  1  0  0.098762  0  3.677445  0  0  0.054055  0  3.934065  0  0  0.066449  0  3.947234  0  0  0.044903  0.046257  0  3.924822  0
C  C94  1  0.72784979  0.78540643  0.86569872  1  0  0.106301  0  3.672639  0  0  0.063699  0  3.924494  0  0  0.07518  0  3.939448  0  0  0.048067  0.056078  0  3.914744  0
C  C95  1  0.27215137  0.21459319  0.13430265  1  0  0.106313  0  3.672583  0  0  0.063696  0  3.92444  0  0  0.075184  0  3.939386  0  0  0.048083  0.056095  0  3.914698  0
C  C96  1  0.63843283  0.89754287  0.85200507  1  0  -0.24013  0  3.705605  0  0  -0.258198  0  3.959843  0  0  -0.270953  0  3.979214  0  0  -0.102869  -0.249943  0  3.94674  0
C  C97  1  0.36156933  0.10245799  0.14799467  1  0  -0.240135  0  3.705518  0  0  -0.258162  0  3.959782  0  0  -0.270918  0  3.979152  0  0  -0.102833  -0.249907  0  3.946668  0
C  C98  1  0.49976641  0.91775940  0.83069881  1  0  0.437276  0  3.866234  0  0  0.420596  0  4.128545  0  0  0.445256  0  4.133184  0  0  0.115978  0.404357  0  4.124443  0
C  C99  1  0.50023562  0.08224110  0.16929846  1  0  0.437322  0  3.86601  0  0  0.420538  0  4.128482  0  0  0.445197  0  4.133119  0  0  0.115944  0.404304  0  4.124372  0
N  N100  1  0.35302236  0.73192863  0.22312657  1  0  -0.07964  0  3.569908  0  0  0.011041  0  3.780166  0  0  -0.005859  0  3.805937  0  0  -0.215627  0.022002  0  3.762513  0
N  N101  1  0.64697702  0.26807380  0.77687400  1  0  -0.079717  0  3.569829  0  0  0.01097  0  3.780115  0  0  -0.005929  0  3.805883  0  0  -0.215638  0.021925  0  3.762472  0
N  N102  1  0.68742818  0.68673572  0.86240312  1  0  -0.095428  0  3.613772  0  0  -0.005539  0  3.825316  0  0  -0.023127  0  3.851903  0  0  -0.22775  0.006152  0  3.806907  0
N  N103  1  0.31257185  0.31326495  0.13759743  1  0  -0.095447  0  3.613764  0  0  -0.005571  0  3.825308  0  0  -0.023162  0  3.851899  0  0  -0.2278  0.006122  0  3.806891  0
O  O104  1  0.01784824  0.80055573  0.41479918  1  0  -0.736471  0  2.107667  0  0  -0.700424  0  2.381543  0  0  -0.7318  0  2.373469  0  0  -0.403963  -0.681538  0  2.388724  0
O  O105  1  0.98215262  0.19944335  0.58520054  1  0  -0.736443  0  2.107653  0  0  -0.700393  0  2.381529  0  0  -0.731772  0  2.373452  0  0  -0.403951  -0.681504  0  2.388709  0
O  O106  1  0.21661135  0.83379943  0.43031427  1  0  -0.695415  0  2.056338  0  0  -0.659049  0  2.304288  0  0  -0.685342  0  2.293174  0  0  -0.379734  -0.641562  0  2.31094  0
O  O107  1  0.78338933  0.16619947  0.56968627  1  0  -0.695383  0  2.056346  0  0  -0.659037  0  2.304322  0  0  -0.685335  0  2.293213  0  0  -0.37974  -0.641544  0  2.310968  0
O  O108  1  0.95960174  0.08448563  0.38130430  1  0  -0.677902  0  2.045772  0  0  -0.624265  0  2.278065  0  0  -0.649336  0  2.267903  0  0  -0.346061  -0.607258  0  2.284309  0
O  O109  1  0.04039781  0.91551432  0.61869542  1  0  -0.677963  0  2.045758  0  0  -0.624318  0  2.278023  0  0  -0.649386  0  2.26786  0  0  -0.346094  -0.607313  0  2.284268  0
O  O110  1  0.86667392  0.18899058  0.23426478  1  0  -0.680922  0  1.985604  0  0  -0.643799  0  2.232273  0  0  -0.669324  0  2.222423  0  0  -0.373784  -0.626958  0  2.238128  0
O  O111  1  0.13332513  0.81100743  0.76573574  1  0  -0.68087  0  1.985659  0  0  -0.643736  0  2.232282  0  0  -0.66926  0  2.222434  0  0  -0.373753  -0.626895  0  2.238136  0
O  O112  1  0.67359115  0.42604096  0.27543040  1  0  -0.717205  0  2.041951  0  0  -0.677878  0  2.292044  0  0  -0.704938  0  2.282819  0  0  -0.4393  -0.660174  0  2.296808  0
O  O113  1  0.32640661  0.57396058  0.72457014  1  0  -0.717255  0  2.041954  0  0  -0.677929  0  2.292045  0  0  -0.704988  0  2.282816  0  0  -0.439343  -0.660226  0  2.296809  0
O  O114  1  0.65060864  0.66584931  0.44891977  1  0  -0.682881  0  2.129281  0  0  -0.635761  0  2.370429  0  0  -0.664388  0  2.365112  0  0  -0.368912  -0.618283  0  2.375068  0
O  O115  1  0.34939043  0.33414993  0.55107912  1  0  -0.682951  0  2.129282  0  0  -0.635808  0  2.370438  0  0  -0.664439  0  2.365118  0  0  -0.368936  -0.618324  0  2.375085  0
O  O116  1  0.43127790  0.64457487  0.50426943  1  0  -0.596349  0  2.097126  0  0  -0.558548  0  2.343568  0  0  -0.582857  0  2.337874  0  0  -0.351506  -0.542672  0  2.346948  0
O  O117  1  0.56872198  0.35542420  0.49573028  1  0  -0.596351  0  2.0972  0  0  -0.558519  0  2.343599  0  0  -0.582827  0  2.337906  0  0  -0.351478  -0.542637  0  2.346987  0
O  O118  1  0.57730906  0.86206416  0.53776325  1  0  -0.610623  0  2.076035  0  0  -0.573234  0  2.31916  0  0  -0.59801  0  2.311697  0  0  -0.362029  -0.557949  0  2.324531  0
O  O119  1  0.42269211  0.13793403  0.46223647  1  0  -0.610499  0  2.076009  0  0  -0.573082  0  2.319121  0  0  -0.597862  0  2.31166  0  0  -0.361941  -0.557803  0  2.324503  0
O  O120  1  0.35809191  0.84077028  0.59392330  1  0  -0.680966  0  2.163799  0  0  -0.630543  0  2.402656  0  0  -0.657214  0  2.39336  0  0  -0.366769  -0.612925  0  2.408261  0
O  O121  1  0.64190894  0.15922879  0.40607642  1  0  -0.680916  0  2.163778  0  0  -0.630487  0  2.402646  0  0  -0.657159  0  2.393348  0  0  -0.366787  -0.612869  0  2.408251  0
O  O122  1  0.81828426  0.65321765  0.61713243  1  0  -0.695019  0  2.004932  0  0  -0.662561  0  2.26107  0  0  -0.691229  0  2.251701  0  0  -0.38623  -0.645089  0  2.268214  0
O  O123  1  0.18171807  0.34678073  0.38286647  1  0  -0.695048  0  2.004908  0  0  -0.662591  0  2.261026  0  0  -0.691256  0  2.25166  0  0  -0.38624  -0.64512  0  2.268174  0
O  O124  1  0.00539609  0.67015249  0.67298175  1  0  -0.744143  0  2.079436  0  0  -0.707315  0  2.341966  0  0  -0.73589  0  2.329511  0  0  -0.399911  -0.688661  0  2.349854  0
O  O125  1  0.99460638  0.32984483  0.32701796  1  0  -0.744138  0  2.079419  0  0  -0.707279  0  2.341882  0  0  -0.735848  0  2.329432  0  0  -0.399849  -0.688622  0  2.349769  0
O  O126  1  0.04743507  0.40896605  0.60886999  1  0  -0.675517  0  1.99443  0  0  -0.626777  0  2.230337  0  0  -0.651868  0  2.221629  0  0  -0.35147  -0.610539  0  2.236608  0
O  O127  1  0.95256413  0.59103090  0.39113135  1  0  -0.675567  0  1.99445  0  0  -0.626822  0  2.230364  0  0  -0.651914  0  2.221659  0  0  -0.351465  -0.610583  0  2.236636  0
O  O128  1  0.14781024  0.25651163  0.73013355  1  0  -0.665666  0  1.994666  0  0  -0.625352  0  2.234959  0  0  -0.65208  0  2.228216  0  0  -0.382603  -0.60828  0  2.239756  0
O  O129  1  0.85218999  0.74349045  0.26986455  1  0  -0.665648  0  1.994801  0  0  -0.625326  0  2.235093  0  0  -0.652052  0  2.228357  0  0  -0.382581  -0.60826  0  2.239901  0
O  O130  1  0.41706960  0.02304058  0.81593354  1  0  -0.564437  0  1.937001  0  0  -0.509207  0  2.138109  0  0  -0.531709  0  2.129979  0  0  -0.307062  -0.493156  0  2.142813  0
O  O131  1  0.58293223  0.97696116  0.18406621  1  0  -0.564465  0  1.936933  0  0  -0.509213  0  2.138109  0  0  -0.531711  0  2.129976  0  0  -0.307069  -0.493165  0  2.142812  0
O  O132  1  0.73369491  0.95332318  0.33293803  1  0  -0.940735  0  1.909825  0  0  -0.903643  0  2.116241  0  0  -0.92841  0  2.083391  0  0  -0.683828  -0.888759  0  2.139463  0
O  O133  1  0.26630576  0.04667572  0.66706251  1  0  -0.940722  0  1.909826  0  0  -0.903631  0  2.116253  0  0  -0.928395  0  2.08339  0  0  -0.683825  -0.888755  0  2.139492  0
O  O134  1  0.80420741  0.91377860  0.55712829  1  0  -0.890595  0  1.881693  0  0  -0.853399  0  2.085439  0  0  -0.874881  0  2.056149  0  0  -0.643859  -0.840131  0  2.103531  0
O  O135  1  0.19579376  0.08621960  0.44287142  1  0  -0.89056  0  1.881733  0  0  -0.853372  0  2.085508  0  0  -0.874857  0  2.056207  0  0  -0.643832  -0.840101  0  2.103601  0
O  O136  1  0.20770004  0.56909253  0.52126073  1  0  -0.898785  0  1.914568  0  0  -0.86347  0  2.120195  0  0  -0.884081  0  2.088192  0  0  -0.652146  -0.849707  0  2.141069  0
O  O137  1  0.79230047  0.43090620  0.47874063  1  0  -0.898721  0  1.914571  0  0  -0.863423  0  2.120224  0  0  -0.884035  0  2.08822  0  0  -0.652155  -0.849675  0  2.141127  0
