# generated using pymatgen
data_FeH6(C3O)4
_symmetry_space_group_name_H-M   'P 1'
_cell_length_a   4.63409583
_cell_length_b   11.22892778
_cell_length_c   12.02405866
_cell_angle_alpha   117.84990096
_cell_angle_beta   91.47753940
_cell_angle_gamma   89.99899403
_symmetry_Int_Tables_number   1
_chemical_formula_structural   FeH6(C3O)4
_chemical_formula_sum   'Fe2 H12 C24 O8'
_cell_volume   552.97781181
_cell_formula_units_Z   2
loop_
 _symmetry_equiv_pos_site_id
 _symmetry_equiv_pos_as_xyz
  1  'x, y, z'
loop_
 _atom_site_type_symbol
 _atom_site_label
 _atom_site_symmetry_multiplicity
 _atom_site_fract_x
 _atom_site_fract_y
 _atom_site_fract_z
 _atom_site_occupancy
 _atom_site_pbe_bader_charge
 _atom_site_pbe_bader_spin_density
 _atom_site_pbe_cm5_charge
 _atom_site_pbe_ddec_charge
 _atom_site_pbe_ddec_spin_density
 _atom_site_pbe_ddec_sum_bond_order
 _atom_site_pbe_magmom
Fe  Fe0  1  0.25003357  0.43179125  0.99997466  1  1.387645  3.601288  0.660424  0.921359  3.813777  2.584713  3.577
Fe  Fe1  1  0.74998288  0.56824890  0.00002168  1  1.387766  3.601321  0.660372  0.921247  3.813791  2.585341  3.577
H  H2  1  0.50178179  0.00388378  0.72780440  1  0.084837  0.000305  0.109411  0.116782  4.8e-05  0.987562  0.0
H  H3  1  0.99844031  0.27609835  0.27216843  1  0.095504  0.000306  0.109379  0.116775  4.8e-05  0.988085  0.0
H  H4  1  0.49824185  0.99610219  0.27219720  1  0.08555  0.000305  0.109425  0.116793  4.8e-05  0.987572  0.0
H  H5  1  0.00154615  0.72389826  0.72783583  1  0.095692  0.000306  0.109454  0.116817  4.8e-05  0.98799  0.0
H  H6  1  0.63916824  0.81393393  0.52234350  1  0.072091  0.000104  0.098108  0.096484  3e-05  1.039292  0.0
H  H7  1  0.86107115  0.29162194  0.47757723  1  0.061014  0.000104  0.098084  0.096431  3e-05  1.038462  0.0
H  H8  1  0.36080756  0.18606219  0.47766531  1  0.072249  0.000104  0.098087  0.096426  3e-05  1.039332  0.0
H  H9  1  0.13894549  0.70836885  0.52241308  1  0.062044  0.000104  0.098094  0.096429  3e-05  1.038446  0.0
H  H10  1  0.08798809  0.26934175  0.67540275  1  0.098425  0.000209  0.106385  0.11408  -0.00018  1.018468  0.0
H  H11  1  0.41181444  0.59389997  0.32465061  1  0.106426  0.000208  0.106608  0.114364  -0.00018  1.017584  0.0
H  H12  1  0.91202101  0.73063167  0.32459640  1  0.098086  0.000209  0.106461  0.114208  -0.00018  1.018459  0.0
H  H13  1  0.58817281  0.40608065  0.67535277  1  0.106313  0.000208  0.106517  0.114236  -0.00018  1.017602  0.0
C  C14  1  0.69659991  0.26359196  0.83120518  1  1.541873  0.007944  0.232894  0.612343  0.00475  4.078902  0.008
C  C15  1  0.80345680  0.43247056  0.16882809  1  1.527066  0.007967  0.232901  0.612199  0.004764  4.078289  0.008
C  C16  1  0.30343372  0.73641319  0.16880247  1  1.542063  0.007975  0.232938  0.612761  0.004768  4.078156  0.008
C  C17  1  0.19652476  0.56753340  0.83116740  1  1.525794  0.008005  0.232726  0.611757  0.004782  4.078539  0.008
C  C18  1  0.78855985  0.14765334  0.71259064  1  -0.010725  0.006392  -0.014791  -0.036158  0.00251  3.976627  0.005
C  C19  1  0.71148061  0.43510265  0.28742035  1  -0.066872  0.006423  -0.014248  -0.035767  0.002516  3.975569  0.005
C  C20  1  0.21139054  0.85233119  0.28741472  1  -0.011192  0.006382  -0.014703  -0.035992  0.002503  3.976482  0.005
C  C21  1  0.28856864  0.56488632  0.71257512  1  -0.066668  0.006411  -0.0142  -0.035716  0.00251  3.975205  0.005
C  C22  1  0.66055413  0.01808649  0.66957942  1  -0.055544  0.001534  -0.08091  -0.089951  0.000559  3.974935  0.001
C  C23  1  0.83962072  0.34854591  0.33037447  1  -0.08386  0.00151  -0.081266  -0.090288  0.000561  3.976847  0.001
C  C24  1  0.33945472  0.98189582  0.33042761  1  -0.056541  0.001542  -0.080871  -0.09  0.000563  3.974751  0.001
C  C25  1  0.16037251  0.65144135  0.66962243  1  -0.083282  0.001517  -0.08123  -0.090187  0.000564  3.976376  0.001
C  C26  1  0.73550782  0.91387944  0.55577397  1  -0.076772  0.000104  -0.086202  -0.124681  -0.000125  3.977583  0.0
C  C27  1  0.76465179  0.35813312  0.44415926  1  -0.002704  0.000104  -0.086097  -0.12474  -0.000123  3.978056  0.0
C  C28  1  0.26448152  0.08610810  0.44424034  1  -0.075744  9.4e-05  -0.086135  -0.12454  -0.000133  3.977254  0.0
C  C29  1  0.23534160  0.64184502  0.55582552  1  -0.004072  9.6e-05  -0.086274  -0.124892  -0.000131  3.977688  0.0
C  C30  1  0.93540307  0.93454266  0.47844007  1  0.039062  0.000565  -0.004212  0.069904  0.000206  4.00656  0.0
C  C31  1  0.56475105  0.45613510  0.52154974  1  0.049812  0.000569  -0.004744  0.069326  0.000208  4.006317  0.0
C  C32  1  0.06457559  0.06544192  0.52157332  1  -0.010267  0.000576  -0.004416  0.069484  0.00021  4.006696  0.0
C  C33  1  0.43525340  0.54383348  0.47842647  1  -0.007632  0.000579  -0.00461  0.069134  0.000211  4.006129  0.0
C  C34  1  0.98912013  0.16970667  0.64020220  1  -0.022245  0.000944  -0.075054  -0.129406  1e-05  3.918412  0.001
C  C35  1  0.51072932  0.52947132  0.35982734  1  -0.011198  0.000937  -0.075278  -0.129375  1.7e-05  3.916964  0.001
C  C36  1  0.01084798  0.83027435  0.35981369  1  -0.022251  0.000964  -0.075226  -0.129654  2.4e-05  3.918532  0.001
C  C37  1  0.48928185  0.47049176  0.64014739  1  -0.011879  0.000956  -0.075156  -0.129228  3e-05  3.91662  0.001
O  O38  1  0.86095502  0.36996776  0.87618118  1  -1.190092  0.103274  -0.320126  -0.594338  0.049373  2.574435  0.084
O  O39  1  0.63899571  0.49384853  0.12388500  1  -1.190064  0.103274  -0.319817  -0.593746  0.049315  2.573198  0.084
O  O40  1  0.13894419  0.63008687  0.12381881  1  -1.190089  0.103275  -0.320182  -0.59461  0.049363  2.574386  0.083
O  O41  1  0.36112153  0.50620634  0.87611274  1  -1.189537  0.103208  -0.319902  -0.593632  0.049312  2.573497  0.083
O  O42  1  0.45964018  0.25712533  0.87874149  1  -1.150622  0.077956  -0.295657  -0.495663  0.035916  2.260765  0.056
O  O43  1  0.04041273  0.37847630  0.12126240  1  -1.150518  0.077958  -0.295793  -0.495652  0.035943  2.260774  0.056
O  O44  1  0.54037794  0.74293044  0.12126642  1  -1.150154  0.077944  -0.295556  -0.495762  0.035915  2.260204  0.056
O  O45  1  0.95958389  0.62157471  0.87873981  1  -1.148792  0.077943  -0.295613  -0.495361  0.035952  2.260652  0.056
