# generated using pymatgen
data_CuH6C6IN2O
_symmetry_space_group_name_H-M   'P 1'
_cell_length_a   4.05779620
_cell_length_b   13.33429705
_cell_length_c   14.85708790
_cell_angle_alpha   105.55957056
_cell_angle_beta   90.00004118
_cell_angle_gamma   89.99997301
_symmetry_Int_Tables_number   1
_chemical_formula_structural   CuH6C6IN2O
_chemical_formula_sum   'Cu4 H24 C24 I4 N8 O4'
_cell_volume   774.42451213
_cell_formula_units_Z   4
loop_
 _symmetry_equiv_pos_site_id
 _symmetry_equiv_pos_as_xyz
  1  'x, y, z'
loop_
 _atom_site_type_symbol
 _atom_site_label
 _atom_site_symmetry_multiplicity
 _atom_site_fract_x
 _atom_site_fract_y
 _atom_site_fract_z
 _atom_site_occupancy
 _atom_site_hle17_bader_spin_density
 _atom_site_hle17_ddec_charge
 _atom_site_hle17_ddec_spin_density
 _atom_site_hle17_ddec_sum_bond_order
 _atom_site_hle17_magmom
 _atom_site_hse06_10hf_bader_spin_density
 _atom_site_hse06_10hf_ddec_charge
 _atom_site_hse06_10hf_ddec_spin_density
 _atom_site_hse06_10hf_ddec_sum_bond_order
 _atom_site_hse06_10hf_magmom
 _atom_site_hse06_bader_spin_density
 _atom_site_hse06_ddec_charge
 _atom_site_hse06_ddec_spin_density
 _atom_site_hse06_ddec_sum_bond_order
 _atom_site_hse06_magmom
 _atom_site_pbe_bader_spin_density
 _atom_site_pbe_cm5_charge
 _atom_site_pbe_ddec_charge
 _atom_site_pbe_ddec_spin_density
 _atom_site_pbe_ddec_sum_bond_order
 _atom_site_pbe_magmom
Cu  Cu0  1  0.86536000  0.53616091  0.80756182  1  0  0.223832  0  2.239307  0  0  0.148285  0  2.725325  0  0  0.161607  0  2.667336  0  0  0.236533  0.141546  0  2.763845  0
Cu  Cu1  1  0.63463792  0.53616461  0.30756228  1  0  0.223818  0  2.239289  0  0  0.148292  0  2.725235  0  0  0.161578  0  2.667256  0  0  0.236555  0.141572  0  2.76379  0
Cu  Cu2  1  0.13463976  0.46383735  0.19243566  1  0  0.223821  0  2.2393  0  0  0.148276  0  2.725289  0  0  0.161587  0  2.667309  0  0  0.23657  0.141541  0  2.76383  0
Cu  Cu3  1  0.36535691  0.46383754  0.69243547  1  0  0.223818  0  2.239319  0  0  0.148272  0  2.725335  0  0  0.161556  0  2.667356  0  0  0.236587  0.141557  0  2.763865  0
H  H4  1  0.48445773  0.97771955  0.29020263  1  0  0.312588  0  0.977193  0  0  0.269499  0  1.087241  0  0  0.281242  0  1.074796  0  0  0.293385  0.26132  0  1.09564  0
H  H5  1  0.01555128  0.97771669  0.79020501  1  0  0.312656  0  0.977134  0  0  0.269586  0  1.087153  0  0  0.281326  0  1.074712  0  0  0.29341  0.261406  0  1.095551  0
H  H6  1  0.51554942  0.02227949  0.70979840  1  0  0.312573  0  0.977201  0  0  0.269486  0  1.087249  0  0  0.281229  0  1.074802  0  0  0.293365  0.261307  0  1.095647  0
H  H7  1  0.98445341  0.02228001  0.20979613  1  0  0.312576  0  0.977205  0  0  0.269498  0  1.087237  0  0  0.28124  0  1.074793  0  0  0.293379  0.261321  0  1.095636  0
H  H8  1  0.11889104  0.63931322  0.99892630  1  0  0.081835  0  0.967517  0  0  0.08736  0  1.039672  0  0  0.090466  0  1.037318  0  0  0.095443  0.084732  0  1.041854  0
H  H9  1  0.38108184  0.63931765  0.49892428  1  0  0.081808  0  0.96759  0  0  0.087337  0  1.039734  0  0  0.090445  0  1.037379  0  0  0.095384  0.084712  0  1.041908  0
H  H10  1  0.88110379  0.36068115  0.00106956  1  0  0.081832  0  0.967578  0  0  0.087362  0  1.039717  0  0  0.090466  0  1.037359  0  0  0.095435  0.084741  0  1.041893  0
H  H11  1  0.61890560  0.36068217  0.50106953  1  0  0.081806  0  0.967521  0  0  0.08733  0  1.039673  0  0  0.090439  0  1.03732  0  0  0.095404  0.084703  0  1.041849  0
H  H12  1  0.81252216  0.96111188  0.06277956  1  0  0.092869  0  0.969884  0  0  0.102198  0  1.036663  0  0  0.10553  0  1.0335  0  0  0.105194  0.099722  0  1.039091  0
H  H13  1  0.68748462  0.96111366  0.56278510  1  0  0.093003  0  0.969964  0  0  0.102337  0  1.03671  0  0  0.105672  0  1.033535  0  0  0.10526  0.099859  0  1.039139  0
H  H14  1  0.18748993  0.03888872  0.93722454  1  0  0.092852  0  0.96991  0  0  0.102196  0  1.036684  0  0  0.105523  0  1.033513  0  0  0.105212  0.099718  0  1.039108  0
H  H15  1  0.31251021  0.03888694  0.43721967  1  0  0.092857  0  0.969854  0  0  0.102191  0  1.036634  0  0  0.105519  0  1.033476  0  0  0.105202  0.099715  0  1.039061  0
H  H16  1  0.55179575  0.91920821  0.90292276  1  0  0.101251  0  0.967794  0  0  0.107344  0  1.034387  0  0  0.111219  0  1.032638  0  0  0.102763  0.104594  0  1.035797  0
H  H17  1  0.94820965  0.91921029  0.40292960  1  0  0.101233  0  0.967874  0  0  0.107377  0  1.03441  0  0  0.111251  0  1.032663  0  0  0.102759  0.104623  0  1.035819  0
H  H18  1  0.44822126  0.08079472  0.09707921  1  0  0.101178  0  0.967888  0  0  0.107268  0  1.034481  0  0  0.111138  0  1.032741  0  0  0.10275  0.104525  0  1.035895  0
H  H19  1  0.05178025  0.08079342  0.59707592  1  0  0.101221  0  0.967898  0  0  0.107345  0  1.034455  0  0  0.11122  0  1.032705  0  0  0.10275  0.104594  0  1.035865  0
H  H20  1  0.58716213  0.73840688  0.80075308  1  0  0.079466  0  0.947744  0  0  0.084536  0  1.020238  0  0  0.088105  0  1.015802  0  0  0.105279  0.081634  0  1.023794  0
H  H21  1  0.91283073  0.73841131  0.30075510  1  0  0.079456  0  0.947823  0  0  0.084509  0  1.020341  0  0  0.088077  0  1.015903  0  0  0.105287  0.081613  0  1.023901  0
H  H22  1  0.41284749  0.26159527  0.19924871  1  0  0.079515  0  0.947832  0  0  0.084578  0  1.020338  0  0  0.08815  0  1.015902  0  0  0.105301  0.081677  0  1.023895  0
H  H23  1  0.08716163  0.26159552  0.69924445  1  0  0.079474  0  0.947736  0  0  0.084524  0  1.02026  0  0  0.088094  0  1.015823  0  0  0.105275  0.081627  0  1.02382  0
H  H24  1  0.26112946  0.74918206  0.14999013  1  0  0.086697  0  0.961445  0  0  0.096532  0  1.032521  0  0  0.099382  0  1.028827  0  0  0.105886  0.094024  0  1.035686  0
H  H25  1  0.23886446  0.74918072  0.64998888  1  0  0.086718  0  0.961382  0  0  0.096554  0  1.03247  0  0  0.099405  0  1.028776  0  0  0.105882  0.094045  0  1.035631  0
H  H26  1  0.73888509  0.25081620  0.85001071  1  0  0.086726  0  0.961411  0  0  0.096575  0  1.032488  0  0  0.099429  0  1.028796  0  0  0.105919  0.09407  0  1.035657  0
H  H27  1  0.76113037  0.25081832  0.35000812  1  0  0.086728  0  0.961393  0  0  0.096572  0  1.032463  0  0  0.099425  0  1.028772  0  0  0.105889  0.09406  0  1.035624  0
C  C28  1  0.99114032  0.70358941  0.98119463  1  0  0.093679  0  3.634963  0  0  0.056686  0  3.877663  0  0  0.062981  0  3.896372  0  0  0.042284  0.052121  0  3.866378  0
C  C29  1  0.50883094  0.70359469  0.48119410  1  0  0.093531  0  3.635051  0  0  0.056534  0  3.877801  0  0  0.062828  0  3.89652  0  0  0.042282  0.051943  0  3.866562  0
C  C30  1  0.00885451  0.29640886  0.01880689  1  0  0.093504  0  3.635107  0  0  0.056527  0  3.877808  0  0  0.062822  0  3.896514  0  0  0.042224  0.051924  0  3.866592  0
C  C31  1  0.49115650  0.29640591  0.51880259  1  0  0.093623  0  3.634909  0  0  0.056646  0  3.877598  0  0  0.062938  0  3.896312  0  0  0.042346  0.052069  0  3.866335  0
C  C32  1  0.98328728  0.80285885  0.04435096  1  0  -0.00484  0  3.816587  0  0  0.020744  0  4.054901  0  0  0.012954  0  4.078827  0  0  -0.010108  0.025554  0  4.039161  0
C  C33  1  0.51669735  0.80286066  0.54435313  1  0  -0.004695  0  3.816465  0  0  0.020815  0  4.054904  0  0  0.012999  0  4.078875  0  0  -0.010076  0.025631  0  4.039155  0
C  C34  1  0.01671248  0.19713942  0.95564921  1  0  -0.004886  0  3.816783  0  0  0.020675  0  4.055183  0  0  0.012883  0  4.079116  0  0  -0.010123  0.025494  0  4.039428  0
C  C35  1  0.48329501  0.19713916  0.45564675  1  0  -0.00482  0  3.816669  0  0  0.020728  0  4.055038  0  0  0.012924  0  4.078989  0  0  -0.010109  0.025542  0  4.039286  0
C  C36  1  0.82229835  0.88277955  0.01618025  1  0  -0.053418  0  3.697781  0  0  -0.084347  0  3.948674  0  0  -0.079122  0  3.965773  0  0  -0.072567  -0.087698  0  3.937182  0
C  C37  1  0.67768862  0.88278289  0.51618281  1  0  -0.053488  0  3.697833  0  0  -0.084396  0  3.94876  0  0  -0.079157  0  3.965861  0  0  -0.072555  -0.087742  0  3.937266  0
C  C38  1  0.17769895  0.11721793  0.98382377  1  0  -0.053366  0  3.698093  0  0  -0.084305  0  3.949003  0  0  -0.079062  0  3.966088  0  0  -0.072566  -0.087649  0  3.937498  0
C  C39  1  0.32229143  0.11722082  0.48381935  1  0  -0.053269  0  3.697791  0  0  -0.084193  0  3.948693  0  0  -0.078957  0  3.96579  0  0  -0.072508  -0.087543  0  3.937202  0
C  C40  1  0.67798253  0.86014076  0.92836760  1  0  -0.107614  0  3.736575  0  0  -0.116978  0  3.989489  0  0  -0.124528  0  4.009383  0  0  -0.086095  -0.112221  0  3.976366  0
C  C41  1  0.82202545  0.86014598  0.42837451  1  0  -0.107812  0  3.73687  0  0  -0.117214  0  3.989777  0  0  -0.124767  0  4.009669  0  0  -0.086272  -0.112452  0  3.976654  0
C  C42  1  0.32202462  0.13985750  0.07162786  1  0  -0.107597  0  3.73684  0  0  -0.116934  0  3.989701  0  0  -0.124483  0  4.009593  0  0  -0.086142  -0.112189  0  3.976581  0
C  C43  1  0.17796692  0.13985851  0.57162649  1  0  -0.107793  0  3.736951  0  0  -0.117169  0  3.989831  0  0  -0.12472  0  4.009723  0  0  -0.086212  -0.112412  0  3.976719  0
C  C44  1  0.69650730  0.75908302  0.87028134  1  0  0.149255  0  3.642166  0  0  0.112559  0  3.895803  0  0  0.122694  0  3.909261  0  0  0.046073  0.105639  0  3.887354  0
C  C45  1  0.80349070  0.75908825  0.37028287  1  0  0.14931  0  3.642221  0  0  0.11261  0  3.895887  0  0  0.122746  0  3.909341  0  0  0.046113  0.105689  0  3.887452  0
C  C46  1  0.30350478  0.24091680  0.12972055  1  0  0.149165  0  3.642148  0  0  0.112468  0  3.89579  0  0  0.122597  0  3.909248  0  0  0.046085  0.105555  0  3.887339  0
C  C47  1  0.19650167  0.24091780  0.62971649  1  0  0.149264  0  3.642194  0  0  0.112569  0  3.895855  0  0  0.122702  0  3.909313  0  0  0.046117  0.105646  0  3.887427  0
C  C48  1  0.15506198  0.81767931  0.13297512  1  0  0.075533  0  3.672721  0  0  0.026611  0  3.940159  0  0  0.03783  0  3.950776  0  0  0.053581  0.019142  0  3.933703  0
C  C49  1  0.34494662  0.81768028  0.63297713  1  0  0.075471  0  3.672649  0  0  0.026545  0  3.940145  0  0  0.037773  0  3.950769  0  0  0.053538  0.019083  0  3.93368  0
C  C50  1  0.84494763  0.18231662  0.86702381  1  0  0.075607  0  3.672722  0  0  0.026621  0  3.940256  0  0  0.037834  0  3.950881  0  0  0.053559  0.019151  0  3.9338  0
C  C51  1  0.65505560  0.18231798  0.36702371  1  0  0.075473  0  3.67274  0  0  0.026555  0  3.940179  0  0  0.037771  0  3.950806  0  0  0.053542  0.019091  0  3.933709  0
I  I52  1  0.86144135  0.56217830  0.63916043  1  0  -0.337798  0  1.826951  0  0  -0.290074  0  2.305542  0  0  -0.306499  0  2.26039  0  0  -0.164425  -0.277542  0  2.337218  0
I  I53  1  0.63855850  0.56217889  0.13916081  1  0  -0.337789  0  1.82693  0  0  -0.290084  0  2.305536  0  0  -0.306512  0  2.260386  0  0  -0.164414  -0.277542  0  2.337224  0
I  I54  1  0.13854855  0.43782308  0.36083578  1  0  -0.337809  0  1.827029  0  0  -0.29009  0  2.305597  0  0  -0.306513  0  2.260447  0  0  -0.164408  -0.277557  0  2.337291  0
I  I55  1  0.36144865  0.43782016  0.86083619  1  0  -0.337802  0  1.826949  0  0  -0.29008  0  2.305546  0  0  -0.306513  0  2.260395  0  0  -0.164413  -0.277544  0  2.337224  0
N  N56  1  0.85222243  0.68187916  0.89588659  1  0  -0.256316  0  3.354221  0  0  -0.178812  0  3.634299  0  0  -0.193707  0  3.645307  0  0  -0.354669  -0.169876  0  3.6274  0
N  N57  1  0.64776584  0.68188364  0.39588522  1  0  -0.256135  0  3.354047  0  0  -0.178587  0  3.63405  0  0  -0.193472  0  3.645051  0  0  -0.354534  -0.169649  0  3.627175  0
N  N58  1  0.14778966  0.31812066  0.10411530  1  0  -0.256066  0  3.353983  0  0  -0.178545  0  3.633992  0  0  -0.193441  0  3.645019  0  0  -0.354579  -0.169602  0  3.627091  0
N  N59  1  0.35222160  0.31812397  0.60411384  1  0  -0.256136  0  3.354033  0  0  -0.178622  0  3.634086  0  0  -0.193511  0  3.645095  0  0  -0.35464  -0.169686  0  3.627209  0
N  N60  1  0.20228965  0.90906842  0.18858528  1  0  -0.121827  0  3.041167  0  0  -0.074973  0  3.319659  0  0  -0.082034  0  3.329409  0  0  -0.22129  -0.070944  0  3.313203  0
N  N61  1  0.29771415  0.90907018  0.68858748  1  0  -0.121768  0  3.040945  0  0  -0.07489  0  3.319423  0  0  -0.081951  0  3.32916  0  0  -0.221255  -0.070863  0  3.312966  0
N  N62  1  0.79771750  0.09092596  0.81141462  1  0  -0.121816  0  3.04106  0  0  -0.074928  0  3.319538  0  0  -0.081992  0  3.32929  0  0  -0.221259  -0.070902  0  3.313084  0
N  N63  1  0.70229547  0.09092809  0.31141269  1  0  -0.121823  0  3.041145  0  0  -0.074963  0  3.319624  0  0  -0.082023  0  3.329373  0  0  -0.221285  -0.070935  0  3.313165  0
O  O64  1  0.37807978  0.90613750  0.26829131  1  0  -0.415198  0  2.071168  0  0  -0.367189  0  2.313442  0  0  -0.388112  0  2.310329  0  0  -0.277303  -0.351776  0  2.314822  0
O  O65  1  0.12192920  0.90613696  0.76829494  1  0  -0.415313  0  2.071096  0  0  -0.367314  0  2.313332  0  0  -0.388246  0  2.310238  0  0  -0.277365  -0.351904  0  2.314715  0
O  O66  1  0.62192491  0.09385998  0.73171002  1  0  -0.415258  0  2.071098  0  0  -0.367249  0  2.313352  0  0  -0.388173  0  2.310239  0  0  -0.277327  -0.351835  0  2.314733  0
O  O67  1  0.87807302  0.09386052  0.23170706  1  0  -0.415172  0  2.071212  0  0  -0.367175  0  2.313473  0  0  -0.3881  0  2.310366  0  0  -0.277304  -0.35177  0  2.314859  0
