# generated using pymatgen
data_CuH16C26S2N2(O2F3)2
_symmetry_space_group_name_H-M   'P 1'
_cell_length_a   9.56238582
_cell_length_b   9.30674060
_cell_length_c   11.07174994
_cell_angle_alpha   77.48519157
_cell_angle_beta   66.44414900
_cell_angle_gamma   69.13741956
_symmetry_Int_Tables_number   1
_chemical_formula_structural   CuH16C26S2N2(O2F3)2
_chemical_formula_sum   'Cu1 H16 C26 S2 N2 O4 F6'
_cell_volume   840.81555580
_cell_formula_units_Z   1
loop_
 _symmetry_equiv_pos_site_id
 _symmetry_equiv_pos_as_xyz
  1  'x, y, z'
loop_
 _atom_site_type_symbol
 _atom_site_label
 _atom_site_symmetry_multiplicity
 _atom_site_fract_x
 _atom_site_fract_y
 _atom_site_fract_z
 _atom_site_occupancy
 _atom_site_pbe_cm5_charge
 _atom_site_pbe_ddec_charge
 _atom_site_pbe_ddec_spin_density
 _atom_site_pbe_ddec_sum_bond_order
 _atom_site_pbe_magmom
Cu  Cu0  1  0.99999982  0.00000139  0.99999587  1  0.765027  0.797698  0.743957  2.324188  0.583
H  H1  1  0.47328639  0.22340079  0.06958927  1  0.1063  0.139228  -2.4e-05  1.02165  0.0
H  H2  1  0.52673017  0.77661084  0.93041171  1  0.106298  0.139228  -2.4e-05  1.021607  0.0
H  H3  1  0.95196483  0.38317049  0.22662315  1  0.103216  0.114959  -7.9e-05  1.0064  0.0
H  H4  1  0.04805287  0.61681819  0.77335972  1  0.103215  0.114933  -7.9e-05  1.006398  0.0
H  H5  1  0.79610975  0.61838807  0.21646501  1  0.089895  0.123417  -0.000135  1.055471  0.0
H  H6  1  0.20388954  0.38160121  0.78353225  1  0.089901  0.123459  -0.000135  1.055498  0.0
H  H7  1  0.21027917  0.14775703  0.21466634  1  0.093656  0.104949  0.000165  1.048376  0.0
H  H8  1  0.78974327  0.85223866  0.78531700  1  0.093588  0.104883  0.000165  1.048435  0.0
H  H9  1  0.20493255  0.81258021  0.15108640  1  0.122673  0.099292  0.000841  0.994128  0.002
H  H10  1  0.79506542  0.18740975  0.84892473  1  0.122693  0.099302  0.000841  0.994136  0.002
H  H11  1  0.21929332  0.80927239  0.36971765  1  0.106932  0.114189  0.000534  1.028591  0.001
H  H12  1  0.78068883  0.19072465  0.63029746  1  0.106951  0.11421  0.000534  1.028512  0.001
H  H13  1  0.76700843  0.17486761  0.45943349  1  0.111472  0.119513  0.000555  1.006969  0.001
H  H14  1  0.23297927  0.82512985  0.54056605  1  0.111398  0.119453  0.000555  1.007127  0.001
H  H15  1  0.77327370  0.15963705  0.23626123  1  0.128363  0.107608  0.000854  0.975782  0.001
H  H16  1  0.22671234  0.84035451  0.76373653  1  0.128344  0.107578  0.000854  0.975847  0.001
C  C17  1  0.35105192  0.29914145  0.09066112  1  -0.098864  -0.175513  -0.000312  3.953726  0.0
C  C18  1  0.64896581  0.70086619  0.90932945  1  -0.098927  -0.175583  -0.000312  3.953829  0.0
C  C19  1  0.21159879  0.26229608  0.16663481  1  -0.113425  -0.094023  0.00061  4.031746  0.001
C  C20  1  0.78842479  0.73770349  0.83335635  1  -0.113343  -0.094021  0.00061  4.032024  0.001
C  C21  1  0.07337917  0.38895339  0.17285192  1  -0.09876  -0.109455  0.000544  3.978333  0.001
C  C22  1  0.92663512  0.61103913  0.82713854  1  -0.09878  -0.109349  0.000543  3.978253  0.001
C  C23  1  0.10877447  0.52156674  0.10122132  1  -0.031923  -0.094445  0.006276  3.991109  0.007
C  C24  1  0.89123198  0.47843290  0.89877306  1  -0.031957  -0.094555  0.006276  3.990996  0.007
C  C25  1  0.00542258  0.67736583  0.08308186  1  0.111833  0.392386  0.000215  4.109688  -0.001
C  C26  1  0.99457761  0.32262804  0.91691411  1  0.111929  0.392528  0.000214  4.10947  -0.001
C  C27  1  0.83906807  0.71187833  0.15299367  1  -0.162329  -0.411925  0.002028  4.027723  0.003
C  C28  1  0.16093596  0.28811797  0.84700407  1  -0.162377  -0.411979  0.00203  4.027711  0.003
C  C29  1  0.72362667  0.85447642  0.14619085  1  0.092929  0.229123  -0.001603  4.190175  -0.001
C  C30  1  0.27637615  0.14552012  0.85381177  1  0.092918  0.228912  -0.001604  4.190359  -0.001
C  C31  1  0.54767234  0.86180615  0.23083473  1  0.291706  0.612571  -0.00012  3.971652  0.0
C  C32  1  0.45231328  0.13820208  0.76917138  1  0.291937  0.613302  -0.00012  3.970956  0.0
C  C33  1  0.11040421  0.88982418  0.22365303  1  0.055794  0.107637  -0.001408  3.923531  -0.001
C  C34  1  0.88959127  0.11017023  0.77635440  1  0.05579  0.107655  -0.001408  3.923693  -0.001
C  C35  1  0.11695450  0.88998636  0.34662783  1  -0.078772  -0.167829  0.003294  3.931243  0.004
C  C36  1  0.88303052  0.11001626  0.65338239  1  -0.078745  -0.167774  0.003295  3.931271  0.004
C  C37  1  0.99604183  0.99550637  0.43555101  1  0.016862  0.107369  -0.003467  3.955821  -0.002
C  C38  1  0.00394855  0.00449742  0.56445890  1  0.01666  0.107271  -0.003468  3.95591  -0.002
C  C39  1  0.86817914  0.09252354  0.39553439  1  -0.07465  -0.161507  0.003232  3.916738  0.004
C  C40  1  0.13181221  0.90747326  0.60447487  1  -0.074511  -0.161433  0.003231  3.917164  0.004
C  C41  1  0.86912435  0.08501047  0.27133815  1  0.056581  0.105518  -0.001382  3.920439  -0.001
C  C42  1  0.13086493  0.91497801  0.72866727  1  0.056619  0.105573  -0.001381  3.920569  -0.001
S  S43  1  0.31352093  0.48722004  0.02583091  1  0.071894  0.138216  0.000314  2.992394  0.0
S  S44  1  0.68648381  0.51279292  0.97417478  1  0.071972  0.138348  0.000314  2.992256  0.0
N  N45  1  0.98958798  0.98684582  0.18606405  1  -0.342742  -0.214283  0.053087  3.602725  0.069
N  N46  1  0.01040841  0.01315318  0.81394209  1  -0.342822  -0.21439  0.053087  3.602722  0.069
O  O47  1  0.07948637  0.77207081  0.00300880  1  -0.311819  -0.485956  0.065777  2.395302  0.094
O  O48  1  0.92051568  0.22792449  0.99699254  1  -0.311844  -0.486008  0.065772  2.395358  0.094
O  O49  1  0.73863614  0.98143757  0.08269739  1  -0.30747  -0.465788  -0.001731  2.263997  0.0
O  O50  1  0.26136352  0.01855816  0.91731283  1  -0.307443  -0.465772  -0.001729  2.263911  0.0
F  F51  1  0.52367989  0.72325407  0.29350911  1  -0.115921  -0.227179  -7e-06  1.296879  0.0
F  F52  1  0.47631489  0.27677332  0.70653132  1  -0.115981  -0.227368  -7e-06  1.296455  0.0
F  F53  1  0.45444159  0.91704713  0.15450720  1  -0.089045  -0.190802  -1e-05  1.370176  0.0
F  F54  1  0.54557330  0.08292049  0.84547298  1  -0.08915  -0.191009  -1e-05  1.370255  0.0
F  F55  1  0.48562912  0.95989592  0.32822540  1  -0.116828  -0.216065  -2.4e-05  1.269278  0.0
F  F56  1  0.51435185  0.04015781  0.67173830  1  -0.116917  -0.216296  -2.4e-05  1.269004  0.0
