# generated using pymatgen
data_ZnH17C20BrN2O5
_symmetry_space_group_name_H-M   'P 1'
_cell_length_a   7.95577864
_cell_length_b   9.35632454
_cell_length_c   14.50262606
_cell_angle_alpha   107.21149683
_cell_angle_beta   90.58693467
_cell_angle_gamma   111.80283532
_symmetry_Int_Tables_number   1
_chemical_formula_structural   ZnH17C20BrN2O5
_chemical_formula_sum   'Zn2 H34 C40 Br2 N4 O10'
_cell_volume   948.59810677
_cell_formula_units_Z   2
loop_
 _symmetry_equiv_pos_site_id
 _symmetry_equiv_pos_as_xyz
  1  'x, y, z'
loop_
 _atom_site_type_symbol
 _atom_site_label
 _atom_site_symmetry_multiplicity
 _atom_site_fract_x
 _atom_site_fract_y
 _atom_site_fract_z
 _atom_site_occupancy
 _atom_site_hle17_bader_spin_density
 _atom_site_hle17_ddec_charge
 _atom_site_hle17_ddec_spin_density
 _atom_site_hle17_ddec_sum_bond_order
 _atom_site_hle17_magmom
 _atom_site_hse06_10hf_bader_spin_density
 _atom_site_hse06_10hf_ddec_charge
 _atom_site_hse06_10hf_ddec_spin_density
 _atom_site_hse06_10hf_ddec_sum_bond_order
 _atom_site_hse06_10hf_magmom
 _atom_site_hse06_bader_spin_density
 _atom_site_hse06_ddec_charge
 _atom_site_hse06_ddec_spin_density
 _atom_site_hse06_ddec_sum_bond_order
 _atom_site_hse06_magmom
 _atom_site_pbe_bader_spin_density
 _atom_site_pbe_cm5_charge
 _atom_site_pbe_ddec_charge
 _atom_site_pbe_ddec_spin_density
 _atom_site_pbe_ddec_sum_bond_order
 _atom_site_pbe_magmom
Zn  Zn0  1  0.08126220  0.32033016  0.47280323  1  0  1.105118  0  1.735533  0  0  0.922435  0  2.206939  0  0  0.97125  0  2.147573  0  0  0.693075  0.887999  0  2.248152  0
Zn  Zn1  1  0.91873398  0.67966584  0.52719560  1  0  1.105112  0  1.73555  0  0  0.922456  0  2.20697  0  0  0.971271  0  2.147603  0  0  0.693097  0.888014  0  2.248189  0
H  H2  1  0.25794215  0.20985040  0.33598286  1  0  0.377584  0  0.94872  0  0  0.335073  0  1.030314  0  0  0.346795  0  1.014032  0  0  0.276071  0.326706  0  1.042002  0
H  H3  1  0.74205947  0.79014917  0.66401734  1  0  0.377578  0  0.948727  0  0  0.335077  0  1.030307  0  0  0.3468  0  1.014024  0  0  0.276087  0.326716  0  1.041984  0
H  H4  1  0.37456236  0.26296967  0.44087796  1  0  0.427335  0  0.879369  0  0  0.394951  0  0.945547  0  0  0.406462  0  0.928975  0  0  0.286893  0.38677  0  0.957319  0
H  H5  1  0.62543078  0.73702524  0.55912340  1  0  0.42736  0  0.879324  0  0  0.394991  0  0.945479  0  0  0.406508  0  0.928902  0  0  0.286915  0.386806  0  0.957256  0
H  H6  1  0.60120262  0.90034187  0.47092666  1  0  0.111873  0  0.949771  0  0  0.12041  0  1.016492  0  0  0.124121  0  1.013406  0  0  0.110613  0.117841  0  1.018616  0
H  H7  1  0.39878801  0.09965304  0.52907124  1  0  0.111936  0  0.949859  0  0  0.120464  0  1.016573  0  0  0.124177  0  1.013487  0  0  0.110644  0.117893  0  1.018704  0
H  H8  1  0.51656980  0.94206572  0.18932488  1  0  0.098311  0  0.979509  0  0  0.10549  0  1.049583  0  0  0.109597  0  1.045512  0  0  0.101059  0.102743  0  1.052113  0
H  H9  1  0.48342874  0.05793267  0.81067371  1  0  0.098346  0  0.9795  0  0  0.105514  0  1.049584  0  0  0.109621  0  1.045515  0  0  0.101069  0.102772  0  1.052101  0
H  H10  1  0.12660197  0.54638376  0.26859189  1  0  0.117979  0  0.955573  0  0  0.126173  0  1.019997  0  0  0.129525  0  1.017867  0  0  0.108575  0.123885  0  1.021244  0
H  H11  1  0.87339675  0.45360964  0.73140233  1  0  0.117892  0  0.95563  0  0  0.1261  0  1.020047  0  0  0.129452  0  1.017918  0  0  0.108562  0.123816  0  1.021293  0
H  H12  1  0.94253336  0.09319368  0.58097545  1  0  0.094527  0  0.940364  0  0  0.102533  0  1.004999  0  0  0.105555  0  1.001689  0  0  0.12109  0.100199  0  1.007606  0
H  H13  1  0.05746419  0.90679987  0.41902568  1  0  0.094575  0  0.940307  0  0  0.102592  0  1.004917  0  0  0.105613  0  1.001613  0  0  0.121117  0.100258  0  1.007524  0
H  H14  1  0.00790287  0.07149663  0.74139537  1  0  0.113968  0  0.957963  0  0  0.123755  0  1.019174  0  0  0.126377  0  1.019586  0  0  0.108645  0.122013  0  1.018678  0
H  H15  1  0.99209427  0.92850680  0.25860828  1  0  0.113987  0  0.957911  0  0  0.123772  0  1.019114  0  0  0.126395  0  1.019527  0  0  0.108654  0.12203  0  1.018617  0
H  H16  1  0.42939817  0.55565978  0.81831247  1  0  0.098019  0  0.982572  0  0  0.109301  0  1.042357  0  0  0.111328  0  1.044109  0  0  0.099294  0.107638  0  1.041646  0
H  H17  1  0.57060084  0.44434228  0.18168611  1  0  0.098033  0  0.982531  0  0  0.109296  0  1.042352  0  0  0.111321  0  1.044106  0  0  0.099294  0.107636  0  1.041626  0
H  H18  1  0.34339591  0.55956518  0.65238371  1  0  0.094395  0  0.954874  0  0  0.100066  0  1.021333  0  0  0.103258  0  1.018145  0  0  0.118605  0.097885  0  1.023269  0
H  H19  1  0.65660025  0.44043081  0.34761373  1  0  0.094369  0  0.954926  0  0  0.100038  0  1.021388  0  0  0.103231  0  1.0182  0  0  0.11861  0.097862  0  1.023327  0
H  H20  1  0.25850003  0.41498028  0.94923472  1  0  0.066939  0  0.974742  0  0  0.07835  0  1.051405  0  0  0.080161  0  1.050273  0  0  0.079407  0.076993  0  1.052316  0
H  H21  1  0.74150014  0.58502426  0.05076708  1  0  0.066986  0  0.974726  0  0  0.078366  0  1.051418  0  0  0.08018  0  1.050285  0  0  0.079421  0.07701  0  1.052317  0
H  H22  1  0.42545961  0.34159206  0.90587063  1  0  0.08075  0  0.94046  0  0  0.098232  0  1.003226  0  0  0.099048  0  1.003603  0  0  0.090376  0.09752  0  1.003119  0
H  H23  1  0.57454295  0.65841488  0.09413163  1  0  0.080684  0  0.940462  0  0  0.098156  0  1.003265  0  0  0.098973  0  1.00364  0  0  0.090319  0.097437  0  1.003165  0
H  H24  1  0.02425348  0.11985367  0.89654431  1  0  0.073808  0  0.964211  0  0  0.08513  0  1.037579  0  0  0.086236  0  1.038196  0  0  0.088002  0.084587  0  1.036647  0
H  H25  1  0.97574921  0.88015085  0.10346026  1  0  0.073836  0  0.964218  0  0  0.085154  0  1.037582  0  0  0.086268  0  1.038184  0  0  0.087962  0.08461  0  1.036651  0
H  H26  1  0.20660264  0.05592364  0.87020493  1  0  0.08965  0  0.940328  0  0  0.105569  0  1.002621  0  0  0.106565  0  1.002736  0  0  0.09564  0.104839  0  1.002701  0
H  H27  1  0.79340127  0.94408082  0.12979757  1  0  0.089633  0  0.940304  0  0  0.105543  0  1.002599  0  0  0.106536  0  1.002719  0  0  0.095628  0.104813  0  1.002683  0
H  H28  1  0.03492229  0.27208021  0.23673762  1  0  0.094439  0  0.965014  0  0  0.102593  0  1.028274  0  0  0.106092  0  1.024369  0  0  0.115764  0.099794  0  1.031643  0
H  H29  1  0.96509669  0.72793493  0.76326763  1  0  0.094455  0  0.96496  0  0  0.102557  0  1.028277  0  0  0.106057  0  1.024374  0  0  0.115797  0.099768  0  1.031629  0
H  H30  1  0.98405670  0.25248312  0.06218507  1  0  0.096804  0  0.963055  0  0  0.104923  0  1.028689  0  0  0.108595  0  1.027353  0  0  0.095272  0.102403  0  1.029267  0
H  H31  1  0.01596025  0.74753576  0.93782017  1  0  0.096777  0  0.963082  0  0  0.104909  0  1.028722  0  0  0.108574  0  1.027395  0  0  0.095294  0.102393  0  1.029296  0
H  H32  1  0.43567605  0.10249594  0.01261749  1  0  0.098803  0  0.958667  0  0  0.110154  0  1.019606  0  0  0.113339  0  1.018628  0  0  0.100543  0.107738  0  1.020688  0
H  H33  1  0.56432442  0.89750118  0.98738156  1  0  0.098751  0  0.958617  0  0  0.110055  0  1.019607  0  0  0.113237  0  1.018633  0  0  0.10051  0.10764  0  1.020689  0
H  H34  1  0.47723431  0.14053931  0.19120545  1  0  0.080453  0  0.956496  0  0  0.089827  0  1.019175  0  0  0.092362  0  1.016547  0  0  0.114028  0.08779  0  1.020976  0
H  H35  1  0.52277045  0.85945893  0.80879383  1  0  0.080486  0  0.956439  0  0  0.089835  0  1.019141  0  0  0.092376  0  1.016506  0  0  0.114044  0.087774  0  1.020961  0
C  C36  1  0.35830663  0.71301280  0.37659272  1  0  -0.047399  0  3.72075  0  0  -0.018218  0  3.954909  0  0  -0.02757  0  3.978225  0  0  -0.010699  -0.012219  0  3.93912  0
C  C37  1  0.64169030  0.28697947  0.62340404  1  0  -0.047293  0  3.720828  0  0  -0.018112  0  3.955002  0  0  -0.027466  0  3.978323  0  0  -0.010736  -0.012119  0  3.939219  0
C  C38  1  0.51773200  0.85516336  0.40052815  1  0  -0.055676  0  3.658077  0  0  -0.097582  0  3.90847  0  0  -0.09398  0  3.9264  0  0  -0.070886  -0.099861  0  3.896283  0
C  C39  1  0.48226540  0.14483259  0.59946929  1  0  -0.055825  0  3.65844  0  0  -0.097719  0  3.90884  0  0  -0.094119  0  3.926772  0  0  -0.070907  -0.099999  0  3.896643  0
C  C40  1  0.57138850  0.93997801  0.33383616  1  0  -0.044277  0  3.723344  0  0  -0.013855  0  3.952072  0  0  -0.022579  0  3.975337  0  0  -0.012084  -0.008384  0  3.936799  0
C  C41  1  0.42861015  0.06001793  0.66616267  1  0  -0.044285  0  3.723404  0  0  -0.013858  0  3.952115  0  0  -0.022579  0  3.975376  0  0  -0.012068  -0.008373  0  3.936825  0
C  C42  1  0.46863947  0.87856899  0.24170053  1  0  -0.118923  0  3.757111  0  0  -0.154943  0  4.006137  0  0  -0.154133  0  4.025288  0  0  -0.090364  -0.154785  0  3.992873  0
C  C43  1  0.53136099  0.12142812  0.75829783  1  0  -0.118906  0  3.757115  0  0  -0.154928  0  4.006142  0  0  -0.154118  0  4.025291  0  0  -0.090339  -0.154773  0  3.992869  0
C  C44  1  0.31155534  0.73747926  0.21895725  1  0  0.085934  0  3.737196  0  0  0.105101  0  4.006226  0  0  0.105999  0  4.028491  0  0  -0.0191  0.10405  0  3.990474  0
C  C45  1  0.68844694  0.26251905  0.78104203  1  0  0.085909  0  3.737251  0  0  0.105104  0  4.006254  0  0  0.106003  0  4.028518  0  0  -0.019128  0.104051  0  3.990513  0
C  C46  1  0.25182796  0.65497130  0.28544960  1  0  -0.113285  0  3.727226  0  0  -0.15066  0  3.978038  0  0  -0.149483  0  3.9982  0  0  -0.087303  -0.150515  0  3.963582  0
C  C47  1  0.74817202  0.34502210  0.71454669  1  0  -0.11326  0  3.727255  0  0  -0.150671  0  3.978104  0  0  -0.149497  0  3.998272  0  0  -0.087309  -0.150518  0  3.963644  0
C  C48  1  0.30129754  0.61498636  0.44486774  1  0  0.661258  0  3.895151  0  0  0.60655  0  4.189373  0  0  0.641563  0  4.181677  0  0  0.21506  0.582655  0  4.194032  0
C  C49  1  0.69869490  0.38500973  0.55513040  1  0  0.661156  0  3.89522  0  0  0.606445  0  4.189473  0  0  0.641456  0  4.181779  0  0  0.214987  0.582548  0  4.194123  0
C  C50  1  0.74165877  0.09392681  0.35474046  1  0  0.648095  0  3.927717  0  0  0.596677  0  4.224075  0  0  0.630758  0  4.217882  0  0  0.203443  0.573594  0  4.22711  0
C  C51  1  0.25833625  0.90606674  0.64525652  1  0  0.648184  0  3.927606  0  0  0.596807  0  4.223903  0  0  0.630889  0  4.217705  0  0  0.203517  0.573722  0  4.226934  0
C  C52  1  0.04939694  0.19371410  0.63561053  1  0  0.151228  0  3.672134  0  0  0.11816  0  3.923255  0  0  0.126604  0  3.941012  0  0  0.053277  0.112369  0  3.911854  0
C  C53  1  0.95060118  0.80628068  0.36439083  1  0  0.151089  0  3.672156  0  0  0.118012  0  3.923264  0  0  0.126455  0  3.941023  0  0  0.053169  0.112217  0  3.911866  0
C  C54  1  0.08747812  0.18306783  0.72649893  1  0  -0.171709  0  3.701392  0  0  -0.18971  0  3.950763  0  0  -0.199282  0  3.973456  0  0  -0.087786  -0.183641  0  3.935688  0
C  C55  1  0.91252102  0.81693183  0.27350266  1  0  -0.171748  0  3.701443  0  0  -0.189763  0  3.950822  0  0  -0.199332  0  3.973504  0  0  -0.087814  -0.183689  0  3.935738  0
C  C56  1  0.22621227  0.31324629  0.79508741  1  0  0.15324  0  3.721041  0  0  0.168252  0  3.959104  0  0  0.174339  0  3.981221  0  0  0.010838  0.164259  0  3.944191  0
C  C57  1  0.77378676  0.68675582  0.20491394  1  0  0.153183  0  3.721045  0  0  0.168253  0  3.959036  0  0  0.174342  0  3.981158  0  0  0.010849  0.164265  0  3.944107  0
C  C58  1  0.31977605  0.45090040  0.76778275  1  0  -0.176327  0  3.71048  0  0  -0.193009  0  3.955259  0  0  -0.202677  0  3.978858  0  0  -0.091029  -0.186831  0  3.939668  0
C  C59  1  0.68022183  0.54909925  0.23221676  1  0  -0.176284  0  3.710545  0  0  -0.192962  0  3.955292  0  0  -0.202631  0  3.978892  0  0  -0.090997  -0.186788  0  3.939702  0
C  C60  1  0.27433550  0.45468278  0.67626702  1  0  0.142775  0  3.685566  0  0  0.110141  0  3.937214  0  0  0.118194  0  3.954665  0  0  0.049577  0.10494  0  3.925019  0
C  C61  1  0.72565941  0.54531323  0.32373042  1  0  0.142771  0  3.685733  0  0  0.110115  0  3.937394  0  0  0.118167  0  3.954845  0  0  0.049526  0.104908  0  3.925211  0
C  C62  1  0.27771795  0.31299028  0.89517681  1  0  -0.154026  0  3.704252  0  0  -0.192745  0  3.946945  0  0  -0.194661  0  3.9584  0  0  -0.160238  -0.191312  0  3.939279  0
C  C63  1  0.72228154  0.68701548  0.10482384  1  0  -0.15392  0  3.704342  0  0  -0.192638  0  3.947002  0  0  -0.194559  0  3.958463  0  0  -0.160194  -0.191193  0  3.939318  0
C  C64  1  0.17115051  0.15466439  0.91618126  1  0  -0.166559  0  3.712127  0  0  -0.206959  0  3.953976  0  0  -0.208898  0  3.966495  0  0  -0.165206  -0.205948  0  3.94571  0
C  C65  1  0.82885092  0.84534014  0.08382193  1  0  -0.166586  0  3.712273  0  0  -0.20695  0  3.954031  0  0  -0.20889  0  3.966553  0  0  -0.16516  -0.205946  0  3.945766  0
C  C66  1  0.12413568  0.23942826  0.18510943  1  0  0.127198  0  3.702129  0  0  0.097131  0  3.955845  0  0  0.10396  0  3.972732  0  0  0.046619  0.092017  0  3.944878  0
C  C67  1  0.87587605  0.76058215  0.81489490  1  0  0.127228  0  3.702069  0  0  0.097231  0  3.955833  0  0  0.10406  0  3.972718  0  0  0.046618  0.092118  0  3.944857  0
C  C68  1  0.09510183  0.22595177  0.08760919  1  0  -0.175848  0  3.718019  0  0  -0.192834  0  3.966784  0  0  -0.201528  0  3.988744  0  0  -0.089756  -0.187081  0  3.950783  0
C  C69  1  0.90490923  0.77405990  0.91239607  1  0  -0.17582  0  3.718089  0  0  -0.192874  0  3.966871  0  0  -0.201563  0  3.988832  0  0  -0.08981  -0.187124  0  3.950876  0
C  C70  1  0.20426598  0.17333636  0.02194154  1  0  0.157642  0  3.725889  0  0  0.175428  0  3.959  0  0  0.180645  0  3.981992  0  0  0.010831  0.17263  0  3.943157  0
C  C71  1  0.79573973  0.82666927  0.97806119  1  0  0.157562  0  3.72592  0  0  0.175412  0  3.958954  0  0  0.180628  0  3.981944  0  0  0.010855  0.172612  0  3.94312  0
C  C72  1  0.34420110  0.14140618  0.05987908  1  0  -0.192622  0  3.729327  0  0  -0.211095  0  3.9793  0  0  -0.219337  0  4.00021  0  0  -0.094529  -0.205756  0  3.964645  0
C  C73  1  0.65580052  0.85859339  0.94012112  1  0  -0.192512  0  3.729289  0  0  -0.21096  0  3.979255  0  0  -0.2192  0  4.000164  0  0  -0.094479  -0.205627  0  3.964605  0
C  C74  1  0.36652979  0.16018201  0.15881328  1  0  0.113967  0  3.752367  0  0  0.08294  0  4.011209  0  0  0.090034  0  4.028148  0  0  0.041045  0.078601  0  3.998227  0
C  C75  1  0.63347432  0.83981752  0.84118830  1  0  0.113867  0  3.75224  0  0  0.082887  0  4.011079  0  0  0.089977  0  4.028015  0  0  0.040998  0.078569  0  3.998098  0
Br  Br76  1  0.17797818  0.65381524  0.09080839  1  0  -0.085661  0  1.335061  0  0  -0.070068  0  1.605883  0  0  -0.074479  0  1.599388  0  0  0.049389  -0.066113  0  1.607741  0
Br  Br77  1  0.82201718  0.34618442  0.90918767  1  0  -0.085647  0  1.335149  0  0  -0.070041  0  1.605942  0  0  -0.07445  0  1.599448  0  0  0.049404  -0.066085  0  1.607804  0
N  N78  1  0.14111447  0.32692076  0.61056150  1  0  -0.34672  0  3.300077  0  0  -0.259696  0  3.578839  0  0  -0.280954  0  3.593312  0  0  -0.333026  -0.245646  0  3.569295  0
N  N79  1  0.85888305  0.67307275  0.38943686  1  0  -0.346614  0  3.300062  0  0  -0.259554  0  3.578754  0  0  -0.280812  0  3.593229  0  0  -0.332921  -0.245512  0  3.569221  0
N  N80  1  0.25731881  0.20622162  0.22047237  1  0  -0.313566  0  3.165899  0  0  -0.248432  0  3.411549  0  0  -0.263467  0  3.427121  0  0  -0.311602  -0.238409  0  3.401058  0
N  N81  1  0.74269072  0.79378143  0.77952852  1  0  -0.313527  0  3.165715  0  0  -0.248451  0  3.411391  0  0  -0.263487  0  3.426964  0  0  -0.311619  -0.238427  0  3.400886  0
O  O82  1  0.13704156  0.50324596  0.42205704  1  0  -0.668809  0  2.081613  0  0  -0.595102  0  2.37441  0  0  -0.623612  0  2.355115  0  0  -0.323458  -0.575084  0  2.387173  0
O  O83  1  0.86295604  0.49674506  0.57793948  1  0  -0.668732  0  2.081517  0  0  -0.595029  0  2.374272  0  0  -0.62353  0  2.354974  0  0  -0.323457  -0.575058  0  2.38716  0
O  O84  1  0.40991231  0.63951749  0.51648629  1  0  -0.608703  0  2.00282  0  0  -0.552033  0  2.227756  0  0  -0.576918  0  2.217996  0  0  -0.299573  -0.534678  0  2.233989  0
O  O85  1  0.59007805  0.36048487  0.48351644  1  0  -0.608684  0  2.00293  0  0  -0.551987  0  2.227829  0  0  -0.576878  0  2.218083  0  0  -0.2995  -0.534635  0  2.234071  0
O  O86  1  0.83911574  0.13919157  0.43811509  1  0  -0.66668  0  2.077734  0  0  -0.589157  0  2.355853  0  0  -0.620232  0  2.342921  0  0  -0.328096  -0.56691  0  2.363727  0
O  O87  1  0.16087715  0.86080818  0.56188234  1  0  -0.666672  0  2.077693  0  0  -0.589254  0  2.355933  0  0  -0.62033  0  2.343  0  0  -0.328124  -0.567008  0  2.363806  0
O  O88  1  0.77811194  0.16406327  0.29185788  1  0  -0.614783  0  1.901703  0  0  -0.570524  0  2.123304  0  0  -0.592587  0  2.113887  0  0  -0.326084  -0.555213  0  2.128983  0
O  O89  1  0.22189062  0.83592759  0.70813726  1  0  -0.614868  0  1.901695  0  0  -0.570577  0  2.123236  0  0  -0.592643  0  2.113823  0  0  -0.326154  -0.555271  0  2.128919  0
O  O90  1  0.24615618  0.20882270  0.40580560  1  0  -0.840529  0  1.928457  0  0  -0.768756  0  2.15715  0  0  -0.792421  0  2.119834  0  0  -0.582212  -0.752083  0  2.183364  0
O  O91  1  0.75383942  0.79117208  0.59419230  1  0  -0.840553  0  1.928494  0  0  -0.768778  0  2.157138  0  0  -0.792448  0  2.119807  0  0  -0.582231  -0.752104  0  2.18336  0
