# generated using pymatgen
data_CuH10C11N3
_symmetry_space_group_name_H-M   'P 1'
_cell_length_a   8.85949103
_cell_length_b   8.93587697
_cell_length_c   16.42466105
_cell_angle_alpha   74.20029815
_cell_angle_beta   82.33607934
_cell_angle_gamma   60.60424297
_symmetry_Int_Tables_number   1
_chemical_formula_structural   CuH10C11N3
_chemical_formula_sum   'Cu4 H40 C44 N12'
_cell_volume   1090.08240642
_cell_formula_units_Z   4
loop_
 _symmetry_equiv_pos_site_id
 _symmetry_equiv_pos_as_xyz
  1  'x, y, z'
loop_
 _atom_site_type_symbol
 _atom_site_label
 _atom_site_symmetry_multiplicity
 _atom_site_fract_x
 _atom_site_fract_y
 _atom_site_fract_z
 _atom_site_occupancy
 _atom_site_hle17_bader_spin_density
 _atom_site_hle17_ddec_charge
 _atom_site_hle17_ddec_spin_density
 _atom_site_hle17_ddec_sum_bond_order
 _atom_site_hle17_magmom
 _atom_site_hse06_10hf_bader_spin_density
 _atom_site_hse06_10hf_ddec_charge
 _atom_site_hse06_10hf_ddec_spin_density
 _atom_site_hse06_10hf_ddec_sum_bond_order
 _atom_site_hse06_10hf_magmom
 _atom_site_hse06_bader_spin_density
 _atom_site_hse06_ddec_charge
 _atom_site_hse06_ddec_spin_density
 _atom_site_hse06_ddec_sum_bond_order
 _atom_site_hse06_magmom
 _atom_site_pbe_bader_spin_density
 _atom_site_pbe_cm5_charge
 _atom_site_pbe_ddec_charge
 _atom_site_pbe_ddec_spin_density
 _atom_site_pbe_ddec_sum_bond_order
 _atom_site_pbe_magmom
Cu  Cu0  1  0.34976880  0.46693986  0.56273200  1  0  0.347541  0  2.45301  0  0  0.252507  0  2.964977  0  0  0.238737  0  2.928587  0  0  0.514395  0.266627  0  2.985166  0
Cu  Cu1  1  0.84958370  0.02964264  0.43730304  1  0  0.347684  0  2.453015  0  0  0.252475  0  2.964752  0  0  0.238668  0  2.928466  0  0  0.514846  0.266663  0  2.984643  0
Cu  Cu2  1  0.28633529  0.38918738  0.06750661  1  0  0.352165  0  2.415277  0  0  0.255202  0  2.925352  0  0  0.241862  0  2.889014  0  0  0.509459  0.26919  0  2.945409  0
Cu  Cu3  1  0.78632612  0.45672583  0.93244337  1  0  0.352453  0  2.4151  0  0  0.255417  0  2.925321  0  0  0.242094  0  2.888877  0  0  0.509546  0.269358  0  2.945465  0
H  H4  1  0.02079918  0.47935922  0.64334234  1  0  0.064343  0  0.967767  0  0  0.069724  0  1.04107  0  0  0.071484  0  1.040649  0  0  0.105414  0.068368  0  1.04157  0
H  H5  1  0.52067130  0.12316139  0.35643019  1  0  0.064315  0  0.967885  0  0  0.069584  0  1.041221  0  0  0.071361  0  1.040798  0  0  0.105145  0.068225  0  1.041705  0
H  H6  1  0.84045105  0.33098819  0.65206981  1  0  0.096817  0  0.965607  0  0  0.106492  0  1.027235  0  0  0.108699  0  1.028327  0  0  0.102011  0.104896  0  1.026659  0
H  H7  1  0.34007573  0.98381597  0.34759996  1  0  0.096437  0  0.965349  0  0  0.105852  0  1.027488  0  0  0.108139  0  1.028501  0  0  0.101543  0.104219  0  1.026936  0
H  H8  1  0.96285681  0.06094446  0.59187754  1  0  0.086179  0  0.982144  0  0  0.092621  0  1.054249  0  0  0.096168  0  1.050066  0  0  0.098345  0.089936  0  1.057318  0
H  H9  1  0.46220142  0.65353509  0.40795152  1  0  0.085826  0  0.982842  0  0  0.092541  0  1.054519  0  0  0.095947  0  1.050486  0  0  0.09843  0.089941  0  1.057519  0
H  H10  1  0.26248254  0.94537713  0.53444007  1  0  0.104061  0  0.971703  0  0  0.113968  0  1.032494  0  0  0.115821  0  1.033719  0  0  0.102113  0.112557  0  1.031877  0
H  H11  1  0.76170214  0.48026745  0.46560119  1  0  0.104659  0  0.971249  0  0  0.114077  0  1.032501  0  0  0.115986  0  1.033673  0  0  0.102118  0.11263  0  1.031901  0
H  H12  1  0.42557917  0.11322036  0.52979066  1  0  0.073805  0  0.964385  0  0  0.083252  0  1.028649  0  0  0.084292  0  1.029141  0  0  0.109305  0.082393  0  1.028482  0
H  H13  1  0.92511554  0.64316788  0.47027490  1  0  0.073659  0  0.963349  0  0  0.082877  0  1.027936  0  0  0.084038  0  1.028257  0  0  0.109042  0.081936  0  1.027879  0
H  H14  1  0.21039878  0.61481354  0.71530610  1  0  0.06722  0  0.953858  0  0  0.074725  0  1.021538  0  0  0.077235  0  1.019573  0  0  0.108361  0.072897  0  1.023022  0
H  H15  1  0.71042012  0.33010912  0.28487033  1  0  0.067909  0  0.954106  0  0  0.075508  0  1.021599  0  0  0.077997  0  1.019657  0  0  0.10876  0.073683  0  1.023073  0
H  H16  1  0.26006709  0.50113638  0.87340299  1  0  0.103678  0  0.976117  0  0  0.111388  0  1.042347  0  0  0.11424  0  1.04169  0  0  0.102956  0.109248  0  1.043015  0
H  H17  1  0.75969809  0.37467168  0.12673473  1  0  0.10433  0  0.975493  0  0  0.112146  0  1.041527  0  0  0.114971  0  1.040885  0  0  0.103125  0.110027  0  1.042157  0
H  H18  1  0.52326728  0.21890880  0.92729736  1  0  0.095445  0  0.966939  0  0  0.103655  0  1.031917  0  0  0.106529  0  1.029854  0  0  0.104951  0.101422  0  1.033618  0
H  H19  1  0.02274119  0.14638311  0.07284871  1  0  0.094631  0  0.967019  0  0  0.103675  0  1.031245  0  0  0.106597  0  1.029135  0  0  0.104992  0.10135  0  1.033079  0
H  H20  1  0.72644497  0.04977051  0.82271440  1  0  0.096159  0  0.960412  0  0  0.107933  0  1.017274  0  0  0.110363  0  1.017996  0  0  0.10305  0.106164  0  1.016981  0
H  H21  1  0.22617171  0.87257132  0.17739066  1  0  0.096607  0  0.960525  0  0  0.108019  0  1.017733  0  0  0.110479  0  1.018413  0  0  0.102976  0.10621  0  1.017481  0
H  H22  1  0.65242120  0.17740420  0.66791142  1  0  0.07568  0  0.957038  0  0  0.08488  0  1.021719  0  0  0.086344  0  1.021421  0  0  0.110833  0.083693  0  1.022154  0
H  H23  1  0.15246378  0.84517108  0.33222029  1  0  0.075919  0  0.957252  0  0  0.084665  0  1.022525  0  0  0.086244  0  1.022077  0  0  0.110842  0.083414  0  1.023026  0
H  H24  1  0.07995190  0.32686378  0.21882160  1  0  0.065614  0  0.981364  0  0  0.070943  0  1.054453  0  0  0.072755  0  1.05406  0  0  0.10631  0.06958  0  1.054823  0
H  H25  1  0.57966050  0.54596702  0.78115760  1  0  0.066235  0  0.98004  0  0  0.07169  0  1.052892  0  0  0.073512  0  1.052521  0  0  0.106505  0.070301  0  1.053268  0
H  H26  1  0.04431325  0.34548562  0.36990035  1  0  0.105021  0  0.945805  0  0  0.115496  0  1.004828  0  0  0.11881  0  1.003985  0  0  0.107583  0.113087  0  1.0056  0
H  H27  1  0.54405908  0.71550351  0.63000479  1  0  0.104672  0  0.946054  0  0  0.115338  0  1.004973  0  0  0.118654  0  1.004123  0  0  0.107537  0.112905  0  1.005778  0
H  H28  1  0.21578048  0.45983183  0.42293519  1  0  0.090368  0  0.978862  0  0  0.094209  0  1.054492  0  0  0.098724  0  1.049704  0  0  0.100211  0.090704  0  1.058106  0
H  H29  1  0.71582005  0.88261126  0.57686366  1  0  0.089968  0  0.980805  0  0  0.093531  0  1.056675  0  0  0.09801  0  1.051938  0  0  0.100046  0.09011  0  1.060196  0
H  H30  1  0.41215609  0.54467061  0.32201355  1  0  0.096837  0  0.963103  0  0  0.109692  0  1.020069  0  0  0.11206  0  1.020128  0  0  0.10573  0.107937  0  1.020283  0
H  H31  1  0.91230596  0.86646767  0.67774572  1  0  0.096771  0  0.963816  0  0  0.110144  0  1.020186  0  0  0.112518  0  1.020209  0  0  0.105686  0.108362  0  1.020443  0
H  H32  1  0.42859170  0.52123663  0.17116140  1  0  0.079196  0  0.946568  0  0  0.088375  0  1.008764  0  0  0.090839  0  1.007307  0  0  0.112192  0.086516  0  1.009928  0
H  H33  1  0.92874041  0.69223517  0.82866046  1  0  0.080032  0  0.945485  0  0  0.08849  0  1.008415  0  0  0.090941  0  1.006954  0  0  0.112676  0.086632  0  1.0096  0
H  H34  1  0.59950799  0.12148338  0.17852472  1  0  0.069987  0  0.949042  0  0  0.076207  0  1.018619  0  0  0.07805  0  1.018158  0  0  0.108212  0.07482  0  1.019099  0
H  H35  1  0.09970118  0.29996582  0.82166063  1  0  0.069441  0  0.949864  0  0  0.075685  0  1.019473  0  0  0.077474  0  1.019146  0  0  0.107917  0.074331  0  1.01988  0
H  H36  1  0.83469509  0.80952781  0.19167269  1  0  0.103515  0  0.942933  0  0  0.115877  0  0.995514  0  0  0.118589  0  0.996193  0  0  0.105463  0.113999  0  0.995089  0
H  H37  1  0.33491042  0.00115366  0.80853082  1  0  0.102895  0  0.943108  0  0  0.115554  0  0.99539  0  0  0.118363  0  0.995926  0  0  0.105166  0.113624  0  0.995039  0
H  H38  1  0.80994930  0.62531201  0.10687464  1  0  0.0978  0  0.963214  0  0  0.10926  0  1.023144  0  0  0.110985  0  1.022698  0  0  0.104684  0.107857  0  1.023684  0
H  H39  1  0.31014639  0.73203867  0.89329869  1  0  0.097523  0  0.964035  0  0  0.108782  0  1.024184  0  0  0.110501  0  1.023757  0  0  0.10455  0.107397  0  1.024693  0
H  H40  1  0.54443623  0.75815702  0.01886861  1  0  0.102351  0  0.974993  0  0  0.107078  0  1.046041  0  0  0.110985  0  1.043672  0  0  0.099335  0.104179  0  1.047879  0
H  H41  1  0.04463608  0.77678088  0.98119685  1  0  0.102871  0  0.975673  0  0  0.107801  0  1.046278  0  0  0.111715  0  1.043927  0  0  0.099564  0.104911  0  1.048101  0
H  H42  1  0.31797909  0.07314873  0.01496731  1  0  0.07303  0  0.947304  0  0  0.082302  0  1.010873  0  0  0.083965  0  1.010704  0  0  0.110539  0.081017  0  1.011143  0
H  H43  1  0.81815541  0.08789758  0.98508330  1  0  0.073345  0  0.946555  0  0  0.082522  0  1.010303  0  0  0.084193  0  1.010116  0  0  0.110729  0.081248  0  1.010547  0
C  C44  1  0.67611498  0.21619744  0.47885552  1  0  -0.156845  0  3.555183  0  0  -0.166249  0  3.949698  0  0  -0.146944  0  3.938792  0  0  -0.080327  -0.179546  0  3.955445  0
C  C45  1  0.17622666  0.69507942  0.52117490  1  0  -0.157428  0  3.557448  0  0  -0.166994  0  3.952345  0  0  -0.147733  0  3.941457  0  0  -0.080264  -0.180286  0  3.958219  0
C  C46  1  0.07026886  0.35928696  0.62090182  1  0  0.105917  0  3.723499  0  0  0.081124  0  3.970534  0  0  0.086107  0  3.988339  0  0  0.036052  0.077917  0  3.958711  0
C  C47  1  0.56999548  0.98065176  0.37888599  1  0  0.105124  0  3.722731  0  0  0.080264  0  3.970138  0  0  0.085229  0  3.988036  0  0  0.035951  0.077074  0  3.958263  0
C  C48  1  0.97041392  0.27616559  0.62538937  1  0  -0.12848  0  3.764183  0  0  -0.136528  0  4.003845  0  0  -0.143913  0  4.027864  0  0  -0.090129  -0.131759  0  3.987766  0
C  C49  1  0.47002064  0.90217848  0.37434212  1  0  -0.126684  0  3.762311  0  0  -0.134543  0  4.001868  0  0  -0.141985  0  4.025837  0  0  -0.089075  -0.129742  0  3.985819  0
C  C50  1  0.03890074  0.12567150  0.59359181  1  0  -0.018493  0  3.745101  0  0  -0.035608  0  3.987176  0  0  -0.032198  0  4.005104  0  0  -0.07334  -0.037864  0  3.97536  0
C  C51  1  0.53835285  0.71987068  0.40623278  1  0  -0.018859  0  3.746334  0  0  -0.0361  0  3.988083  0  0  -0.032597  0  4.006036  0  0  -0.073901  -0.038423  0  3.97624  0
C  C52  1  0.20591616  0.06235426  0.55990910  1  0  -0.128186  0  3.754241  0  0  -0.136046  0  3.992353  0  0  -0.143167  0  4.015739  0  0  -0.08902  -0.131503  0  3.976861  0
C  C53  1  0.70531612  0.62272159  0.44005401  1  0  -0.128311  0  3.753489  0  0  -0.135743  0  3.991587  0  0  -0.142917  0  4.014943  0  0  -0.088344  -0.131149  0  3.976089  0
C  C54  1  0.29649826  0.15406848  0.55758482  1  0  0.108768  0  3.71049  0  0  0.084687  0  3.951785  0  0  0.089358  0  3.971068  0  0  0.037506  0.081682  0  3.939003  0
C  C55  1  0.79603853  0.71194436  0.44241857  1  0  0.108583  0  3.710952  0  0  0.084589  0  3.952216  0  0  0.089226  0  3.971435  0  0  0.037289  0.081612  0  3.939486  0
C  C56  1  0.32219800  0.48956776  0.74246732  1  0  0.095382  0  3.724878  0  0  0.0715  0  3.970135  0  0  0.076221  0  3.987439  0  0  0.035633  0.068189  0  3.959259  0
C  C57  1  0.82213757  0.23207323  0.25768488  1  0  0.09492  0  3.726141  0  0  0.070677  0  3.971356  0  0  0.075458  0  3.988637  0  0  0.035473  0.067297  0  3.960551  0
C  C58  1  0.35059446  0.42749940  0.82934743  1  0  -0.126671  0  3.755588  0  0  -0.134839  0  3.996863  0  0  -0.142365  0  4.019814  0  0  -0.085752  -0.130103  0  3.981915  0
C  C59  1  0.85029049  0.25694782  0.17080297  1  0  -0.12756  0  3.756286  0  0  -0.135972  0  3.998219  0  0  -0.143468  0  4.021129  0  0  -0.086056  -0.131223  0  3.983244  0
C  C60  1  0.49772387  0.26748516  0.85964115  1  0  -0.006793  0  3.721924  0  0  -0.025897  0  3.968245  0  0  -0.021642  0  3.985835  0  0  -0.067129  -0.02883  0  3.956822  0
C  C61  1  0.99733042  0.12723633  0.14050894  1  0  -0.005817  0  3.722496  0  0  -0.025597  0  3.968554  0  0  -0.021381  0  3.986156  0  0  -0.067422  -0.028479  0  3.957129  0
C  C62  1  0.60993026  0.17497310  0.80178655  1  0  -0.127497  0  3.75703  0  0  -0.136934  0  3.99994  0  0  -0.143916  0  4.021899  0  0  -0.088038  -0.1325  0  3.985387  0
C  C63  1  0.10970726  0.97680291  0.19834027  1  0  -0.127667  0  3.758257  0  0  -0.136603  0  4.000856  0  0  -0.143612  0  4.022856  0  0  -0.087207  -0.132122  0  3.986265  0
C  C64  1  0.57082626  0.24546805  0.71588631  1  0  0.107864  0  3.706253  0  0  0.081157  0  3.952905  0  0  0.086942  0  3.969418  0  0  0.036894  0.077417  0  3.942046  0
C  C65  1  0.07079998  0.96128089  0.28424766  1  0  0.107354  0  3.707439  0  0  0.080595  0  3.953787  0  0  0.08633  0  3.970327  0  0  0.036086  0.076889  0  3.942911  0
C  C66  1  0.59080761  0.45952325  0.99011378  1  0  -0.151563  0  3.57282  0  0  -0.158239  0  3.969304  0  0  -0.139146  0  3.958442  0  0  -0.077521  -0.171414  0  3.975037  0
C  C67  1  0.09071485  0.44971944  0.00983728  1  0  -0.151193  0  3.572652  0  0  -0.15813  0  3.969551  0  0  -0.139071  0  3.958804  0  0  -0.077401  -0.171283  0  3.975201  0
C  C68  1  0.14972190  0.37605968  0.24438956  1  0  0.108323  0  3.70572  0  0  0.0824  0  3.95037  0  0  0.088271  0  3.966815  0  0  0.038133  0.078615  0  3.939595  0
C  C69  1  0.64959784  0.62053201  0.75550993  1  0  0.108276  0  3.703704  0  0  0.082556  0  3.948125  0  0  0.088378  0  3.964588  0  0  0.038372  0.078813  0  3.937356  0
C  C70  1  0.13049790  0.38719220  0.32842097  1  0  -0.125821  0  3.744583  0  0  -0.133793  0  3.984205  0  0  -0.141263  0  4.006824  0  0  -0.085128  -0.129022  0  3.969186  0
C  C71  1  0.63041330  0.71558780  0.67144052  1  0  -0.125369  0  3.745057  0  0  -0.133684  0  3.984742  0  0  -0.141161  0  4.007386  0  0  -0.085417  -0.128898  0  3.969711  0
C  C72  1  0.22461645  0.44975165  0.35759990  1  0  -0.009747  0  3.720968  0  0  -0.028073  0  3.966689  0  0  -0.024747  0  3.985674  0  0  -0.070045  -0.030186  0  3.954235  0
C  C73  1  0.72467491  0.80717689  0.64220519  1  0  -0.0092  0  3.723595  0  0  -0.027301  0  3.969458  0  0  -0.023937  0  3.988419  0  0  -0.069478  -0.029482  0  3.956952  0
C  C74  1  0.33417462  0.49844872  0.30113789  1  0  -0.131339  0  3.768121  0  0  -0.139951  0  4.013033  0  0  -0.14793  0  4.036809  0  0  -0.086829  -0.134919  0  3.997316  0
C  C75  1  0.83431243  0.79937970  0.69864967  1  0  -0.131491  0  3.767999  0  0  -0.140459  0  4.012687  0  0  -0.148421  0  4.036421  0  0  -0.087089  -0.135425  0  3.997007  0
C  C76  1  0.34510967  0.48460084  0.21796446  1  0  0.100228  0  3.713793  0  0  0.073399  0  3.960995  0  0  0.078918  0  3.977281  0  0  0.037918  0.069869  0  3.950385  0
C  C77  1  0.84522346  0.70239994  0.78186202  1  0  0.100547  0  3.712905  0  0  0.074375  0  3.960358  0  0  0.079921  0  3.976625  0  0  0.037859  0.070818  0  3.94976  0
C  C78  1  0.59089280  0.03559819  0.14523354  1  0  0.11653  0  3.710907  0  0  0.08879  0  3.961995  0  0  0.093979  0  3.980401  0  0  0.038563  0.08547  0  3.949723  0
C  C79  1  0.09113341  0.18073732  0.85493408  1  0  0.117199  0  3.71223  0  0  0.089293  0  3.963261  0  0  0.094484  0  3.981711  0  0  0.039475  0.085972  0  3.95098  0
C  C80  1  0.72213571  0.86187471  0.15193460  1  0  -0.129438  0  3.757136  0  0  -0.13667  0  3.996996  0  0  -0.144274  0  4.01992  0  0  -0.08806  -0.131736  0  3.981562  0
C  C81  1  0.22237998  0.01371769  0.84824230  1  0  -0.129852  0  3.756887  0  0  -0.1373  0  3.996678  0  0  -0.14494  0  4.019571  0  0  -0.088703  -0.132339  0  3.981274  0
C  C82  1  0.70742141  0.75944355  0.10585311  1  0  -0.017067  0  3.731433  0  0  -0.031561  0  3.964905  0  0  -0.028568  0  3.985755  0  0  -0.071831  -0.033488  0  3.950972  0
C  C83  1  0.20764596  0.86516737  0.89430804  1  0  -0.015794  0  3.732182  0  0  -0.030164  0  3.965814  0  0  -0.027165  0  3.986667  0  0  -0.071378  -0.032087  0  3.951853  0
C  C84  1  0.56001455  0.83406144  0.05599811  1  0  -0.127554  0  3.746767  0  0  -0.133668  0  3.983765  0  0  -0.141377  0  4.006436  0  0  -0.088838  -0.128746  0  3.968783  0
C  C85  1  0.06022295  0.88986978  0.94410279  1  0  -0.129063  0  3.747259  0  0  -0.135402  0  3.984408  0  0  -0.143133  0  4.007101  0  0  -0.089478  -0.130484  0  3.969432  0
C  C86  1  0.43451389  0.00825109  0.05364929  1  0  0.099617  0  3.732244  0  0  0.075608  0  3.97739  0  0  0.080133  0  3.996105  0  0  0.037568  0.072752  0  3.964982  0
C  C87  1  0.93470089  0.06173882  0.94644419  1  0  0.097981  0  3.731088  0  0  0.07398  0  3.97659  0  0  0.078533  0  3.995349  0  0  0.036576  0.071123  0  3.964162  0
N  N88  1  0.55755007  0.32544447  0.50779474  1  0  -0.39587  0  3.344367  0  0  -0.336496  0  3.684124  0  0  -0.348056  0  3.686327  0  0  -0.449374  -0.329162  0  3.681469  0
N  N89  1  0.05745198  0.83318449  0.49228805  1  0  -0.395588  0  3.345709  0  0  -0.335915  0  3.684832  0  0  -0.34763  0  3.687528  0  0  -0.44931  -0.328445  0  3.681728  0
N  N90  1  0.23012271  0.30123581  0.58680909  1  0  -0.281366  0  3.306103  0  0  -0.215039  0  3.580486  0  0  -0.224159  0  3.590501  0  0  -0.344837  -0.209635  0  3.573792  0
N  N91  1  0.72979692  0.88834047  0.41310813  1  0  -0.28117  0  3.308139  0  0  -0.214487  0  3.582114  0  0  -0.22365  0  3.592171  0  0  -0.344809  -0.209095  0  3.575396  0
N  N92  1  0.42964771  0.40039361  0.68610989  1  0  -0.271507  0  3.345487  0  0  -0.209053  0  3.636343  0  0  -0.215726  0  3.642469  0  0  -0.353492  -0.2055  0  3.632325  0
N  N93  1  0.92970061  0.08644650  0.31402514  1  0  -0.271818  0  3.34593  0  0  -0.208634  0  3.636151  0  0  -0.215386  0  3.64237  0  0  -0.353624  -0.20503  0  3.632015  0
N  N94  1  0.46872336  0.45136211  0.02524576  1  0  -0.408783  0  3.324873  0  0  -0.352261  0  3.663555  0  0  -0.364946  0  3.666835  0  0  -0.448031  -0.344031  0  3.660084  0
N  N95  1  0.96857195  0.47678211  0.97472816  1  0  -0.409046  0  3.325611  0  0  -0.352374  0  3.664474  0  0  -0.36502  0  3.667674  0  0  -0.448295  -0.344127  0  3.660952  0
N  N96  1  0.25469774  0.42402817  0.18947582  1  0  -0.265916  0  3.332289  0  0  -0.200766  0  3.619967  0  0  -0.207264  0  3.625513  0  0  -0.348328  -0.197569  0  3.616509  0
N  N97  1  0.75467521  0.61350971  0.81040580  1  0  -0.267792  0  3.333101  0  0  -0.203032  0  3.620969  0  0  -0.209527  0  3.626448  0  0  -0.349221  -0.199812  0  3.617533  0
N  N98  1  0.44938735  0.10917041  0.09665862  1  0  -0.280638  0  3.307077  0  0  -0.216748  0  3.590349  0  0  -0.225732  0  3.600158  0  0  -0.343587  -0.211549  0  3.583851  0
N  N99  1  0.94960239  0.20570492  0.90345700  1  0  -0.278334  0  3.307051  0  0  -0.214302  0  3.590048  0  0  -0.223359  0  3.599928  0  0  -0.342432  -0.209081  0  3.583523  0
