# generated using pymatgen
data_RbH7(CO)8
_symmetry_space_group_name_H-M   'P 1'
_cell_length_a   5.53218297
_cell_length_b   9.81959111
_cell_length_c   10.79783228
_cell_angle_alpha   80.61586859
_cell_angle_beta   88.39557115
_cell_angle_gamma   72.17465526
_symmetry_Int_Tables_number   1
_chemical_formula_structural   RbH7(CO)8
_chemical_formula_sum   'Rb2 H14 C16 O16'
_cell_volume   550.79663317
_cell_formula_units_Z   2
loop_
 _symmetry_equiv_pos_site_id
 _symmetry_equiv_pos_as_xyz
  1  'x, y, z'
loop_
 _atom_site_type_symbol
 _atom_site_label
 _atom_site_symmetry_multiplicity
 _atom_site_fract_x
 _atom_site_fract_y
 _atom_site_fract_z
 _atom_site_occupancy
 _atom_site_hle17_bader_spin_density
 _atom_site_hle17_ddec_charge
 _atom_site_hle17_ddec_spin_density
 _atom_site_hle17_ddec_sum_bond_order
 _atom_site_hle17_magmom
 _atom_site_hse06_10hf_bader_spin_density
 _atom_site_hse06_10hf_ddec_charge
 _atom_site_hse06_10hf_ddec_spin_density
 _atom_site_hse06_10hf_ddec_sum_bond_order
 _atom_site_hse06_10hf_magmom
 _atom_site_hse06_bader_spin_density
 _atom_site_hse06_ddec_charge
 _atom_site_hse06_ddec_spin_density
 _atom_site_hse06_ddec_sum_bond_order
 _atom_site_hse06_magmom
 _atom_site_pbe_bader_spin_density
 _atom_site_pbe_cm5_charge
 _atom_site_pbe_ddec_charge
 _atom_site_pbe_ddec_spin_density
 _atom_site_pbe_ddec_sum_bond_order
 _atom_site_pbe_magmom
Rb  Rb0  1  0.79452122  0.36495617  0.14790853  1  0  0.952171  0  0.434715  0  0  0.897289  0  0.640104  0  0  0.913312  0  0.615394  0  0  0.7455  0.88511  0  0.657989  0
Rb  Rb1  1  0.20549044  0.63503160  0.85210445  1  0  0.952188  0  0.434715  0  0  0.897328  0  0.640073  0  0  0.913351  0  0.615363  0  0  0.745524  0.885146  0  0.657959  0
H  H2  1  0.25301475  0.97802989  0.25710559  1  0  0.135546  0  0.945318  0  0  0.140926  0  1.007451  0  0  0.145504  0  1.004877  0  0  0.119325  0.137721  0  1.009291  0
H  H3  1  0.74696952  0.02196227  0.74288391  1  0  0.135577  0  0.945287  0  0  0.140908  0  1.007478  0  0  0.145485  0  1.004906  0  0  0.119316  0.137703  0  1.009316  0
H  H4  1  0.28730194  0.78985813  0.14481143  1  0  0.126119  0  0.940259  0  0  0.135258  0  0.998307  0  0  0.138845  0  0.996775  0  0  0.119633  0.132766  0  0.999335  0
H  H5  1  0.71271828  0.21013460  0.85516825  1  0  0.126203  0  0.940103  0  0  0.135257  0  0.998266  0  0  0.138845  0  0.996731  0  0  0.119623  0.132766  0  0.999296  0
H  H6  1  0.84018906  0.89303138  0.08012399  1  0  0.388203  0  0.925609  0  0  0.358269  0  1.000664  0  0  0.370504  0  0.984136  0  0  0.298893  0.349757  0  1.009492  0
H  H7  1  0.15981846  0.10697564  0.91986754  1  0  0.388161  0  0.92581  0  0  0.358293  0  1.000659  0  0  0.37053  0  0.984127  0  0  0.298899  0.349779  0  1.009577  0
H  H8  1  0.35377099  0.14858728  0.32580882  1  0  0.397035  0  0.907303  0  0  0.363031  0  0.989548  0  0  0.377491  0  0.972796  0  0  0.297875  0.353062  0  0.99889  0
H  H9  1  0.64622518  0.85139529  0.67420609  1  0  0.39705  0  0.907349  0  0  0.363061  0  0.989565  0  0  0.377519  0  0.972759  0  0  0.297886  0.353094  0  0.998895  0
H  H10  1  0.69338113  0.24578190  0.46304542  1  0  0.137253  0  0.947711  0  0  0.139475  0  1.016189  0  0  0.145046  0  1.011898  0  0  0.116082  0.135553  0  1.019145  0
H  H11  1  0.30661070  0.75420933  0.53696728  1  0  0.137226  0  0.947706  0  0  0.139442  0  1.016201  0  0  0.145011  0  1.011912  0  0  0.116082  0.135521  0  1.019154  0
H  H12  1  0.52548913  0.39745797  0.61092127  1  0  0.12304  0  0.963374  0  0  0.130012  0  1.02624  0  0  0.133749  0  1.02509  0  0  0.113129  0.127353  0  1.027209  0
H  H13  1  0.47449798  0.60255364  0.38907351  1  0  0.123004  0  0.963465  0  0  0.130032  0  1.026236  0  0  0.13377  0  1.025087  0  0  0.113136  0.127356  0  1.02724  0
H  H14  1  0.18709885  0.32161265  0.62815997  1  0  0.378013  0  0.943179  0  0  0.347854  0  1.020433  0  0  0.35991  0  1.004355  0  0  0.291177  0.339453  0  1.028609  0
H  H15  1  0.81288766  0.67840009  0.37183927  1  0  0.378218  0  0.942829  0  0  0.348033  0  1.020175  0  0  0.360087  0  1.004096  0  0  0.291181  0.339635  0  1.028311  0
C  C16  1  0.60668466  0.02720839  0.21117954  1  0  0.689338  0  3.821045  0  0  0.639476  0  4.120671  0  0  0.67403  0  4.111164  0  0  0.232257  0.61605  0  4.126766  0
C  C17  1  0.39330165  0.97279036  0.78882280  1  0  0.689528  0  3.820903  0  0  0.639702  0  4.120478  0  0  0.674256  0  4.11097  0  0  0.23238  0.616272  0  4.126582  0
C  C18  1  0.42528908  0.94415251  0.20360964  1  0  -0.163028  0  3.623434  0  0  -0.183139  0  3.882698  0  0  -0.18869  0  3.895975  0  0  -0.070285  -0.179512  0  3.8738  0
C  C19  1  0.57470389  0.05584390  0.79638279  1  0  -0.163298  0  3.62365  0  0  -0.183372  0  3.882907  0  0  -0.188921  0  3.896178  0  0  -0.07043  -0.179743  0  3.87401  0
C  C20  1  0.44467353  0.83545352  0.13857971  1  0  -0.148447  0  3.61142  0  0  -0.168416  0  3.868169  0  0  -0.173195  0  3.882528  0  0  -0.065541  -0.165136  0  3.858408  0
C  C21  1  0.55533844  0.16454475  0.86140478  1  0  -0.148287  0  3.611465  0  0  -0.168199  0  3.868172  0  0  -0.172978  0  3.882535  0  0  -0.065448  -0.16492  0  3.858413  0
C  C22  1  0.64792940  0.76029451  0.05789967  1  0  0.686717  0  3.85503  0  0  0.641942  0  4.155036  0  0  0.675033  0  4.144977  0  0  0.221372  0.619274  0  4.161636  0
C  C23  1  0.35210248  0.23970361  0.94209385  1  0  0.686509  0  3.855607  0  0  0.641762  0  4.155599  0  0  0.674853  0  4.145545  0  0  0.221371  0.619099  0  4.162188  0
C  C24  1  0.09507600  0.22709384  0.47392734  1  0  0.696065  0  3.841318  0  0  0.649789  0  4.133536  0  0  0.684469  0  4.123779  0  0  0.224661  0.626498  0  4.139097  0
C  C25  1  0.90491913  0.77290163  0.52608188  1  0  0.696144  0  3.841346  0  0  0.649802  0  4.133677  0  0  0.684478  0  4.123924  0  0  0.224662  0.626512  0  4.139236  0
C  C26  1  0.82723620  0.27985574  0.51368327  1  0  -0.164491  0  3.619931  0  0  -0.18566  0  3.87817  0  0  -0.190242  0  3.890074  0  0  -0.074087  -0.182439  0  3.869657  0
C  C27  1  0.17275572  0.72014620  0.48632128  1  0  -0.164469  0  3.619885  0  0  -0.185621  0  3.878176  0  0  -0.190204  0  3.890082  0  0  -0.074095  -0.182405  0  3.869667  0
C  C28  1  0.73032615  0.36646927  0.59940829  1  0  -0.17795  0  3.652054  0  0  -0.193259  0  3.906175  0  0  -0.199684  0  3.922581  0  0  -0.076907  -0.189055  0  3.895195  0
C  C29  1  0.26966382  0.63354019  0.40059050  1  0  -0.177975  0  3.652187  0  0  -0.193293  0  3.906307  0  0  -0.199719  0  3.922706  0  0  -0.076886  -0.189088  0  3.895322  0
C  C30  1  0.85296563  0.43387229  0.68309868  1  0  0.673649  0  3.856523  0  0  0.631466  0  4.153571  0  0  0.663931  0  4.144061  0  0  0.218543  0.609449  0  4.159435  0
C  C31  1  0.14701928  0.56614367  0.31689731  1  0  0.673672  0  3.856386  0  0  0.631445  0  4.153522  0  0  0.66392  0  4.143998  0  0  0.218578  0.609433  0  4.159378  0
O  O32  1  0.81120710  0.00502565  0.15164009  1  0  -0.568591  0  1.984703  0  0  -0.515422  0  2.199802  0  0  -0.539294  0  2.190612  0  0  -0.293271  -0.499194  0  2.20534  0
O  O33  1  0.18877488  0.99498174  0.84835819  1  0  -0.568659  0  1.984595  0  0  -0.515515  0  2.199588  0  0  -0.539387  0  2.190394  0  0  -0.293326  -0.499293  0  2.205171  0
O  O34  1  0.54594864  0.12877609  0.28002226  1  0  -0.554136  0  2.086089  0  0  -0.504535  0  2.315403  0  0  -0.528605  0  2.300014  0  0  -0.322507  -0.488066  0  2.324257  0
O  O35  1  0.45404192  0.87121407  0.71998969  1  0  -0.554203  0  2.08616  0  0  -0.504638  0  2.315455  0  0  -0.528708  0  2.300032  0  0  -0.322552  -0.488168  0  2.324313  0
O  O36  1  0.84992337  0.80464646  0.03319710  1  0  -0.589314  0  2.111606  0  0  -0.538843  0  2.335197  0  0  -0.562574  0  2.318974  0  0  -0.363405  -0.522271  0  2.344223  0
O  O37  1  0.15010031  0.19535716  0.96679753  1  0  -0.589232  0  2.112014  0  0  -0.538789  0  2.335456  0  0  -0.562521  0  2.319239  0  0  -0.363363  -0.522214  0  2.34454  0
O  O38  1  0.62376036  0.65659623  0.01299848  1  0  -0.636054  0  1.939588  0  0  -0.599548  0  2.174481  0  0  -0.619686  0  2.164041  0  0  -0.397215  -0.585353  0  2.181447  0
O  O39  1  0.37630111  0.34338975  0.98700211  1  0  -0.635986  0  1.939705  0  0  -0.599487  0  2.174595  0  0  -0.619626  0  2.164152  0  0  -0.397232  -0.585293  0  2.18156  0
O  O40  1  0.12293199  0.17942174  0.36884790  1  0  -0.613671  0  2.034163  0  0  -0.56106  0  2.261831  0  0  -0.586606  0  2.249284  0  0  -0.346077  -0.543146  0  2.268454  0
O  O41  1  0.87707071  0.82055862  0.63116912  1  0  -0.613723  0  2.034237  0  0  -0.561063  0  2.261904  0  0  -0.586608  0  2.249338  0  0  -0.346067  -0.543154  0  2.268524  0
O  O42  1  0.27944571  0.23060506  0.53949026  1  0  -0.581976  0  1.99451  0  0  -0.523718  0  2.204215  0  0  -0.549058  0  2.195404  0  0  -0.301087  -0.506431  0  2.208918  0
O  O43  1  0.72054743  0.76939798  0.46051781  1  0  -0.582042  0  1.994356  0  0  -0.523799  0  2.204153  0  0  -0.549137  0  2.195343  0  0  -0.301145  -0.506518  0  2.208847  0
O  O44  1  0.10469553  0.39952067  0.68828682  1  0  -0.596507  0  2.109621  0  0  -0.544984  0  2.333194  0  0  -0.569511  0  2.318948  0  0  -0.351152  -0.527884  0  2.340482  0
O  O45  1  0.89529011  0.60049744  0.31170882  1  0  -0.596642  0  2.109487  0  0  -0.545077  0  2.333063  0  0  -0.569605  0  2.318814  0  0  -0.351124  -0.527976  0  2.340318  0
O  O46  1  0.71926812  0.52009816  0.74768009  1  0  -0.588981  0  1.898908  0  0  -0.556224  0  2.125839  0  0  -0.574697  0  2.116235  0  0  -0.336917  -0.543564  0  2.131854  0
O  O47  1  0.28071573  0.47991994  0.25231280  1  0  -0.588968  0  1.898692  0  0  -0.556193  0  2.125648  0  0  -0.574671  0  2.116043  0  0  -0.336965  -0.543538  0  2.131665  0
