# generated using pymatgen
data_Ag3H12C7S(NO2)3
_symmetry_space_group_name_H-M   'P 1'
_cell_length_a   6.16479296
_cell_length_b   8.33379241
_cell_length_c   12.83153316
_cell_angle_alpha   90.37310964
_cell_angle_beta   79.01527257
_cell_angle_gamma   83.91519932
_symmetry_Int_Tables_number   1
_chemical_formula_structural   Ag3H12C7S(NO2)3
_chemical_formula_sum   'Ag6 H24 C14 S2 N6 O12'
_cell_volume   643.26875047
_cell_formula_units_Z   2
loop_
 _symmetry_equiv_pos_site_id
 _symmetry_equiv_pos_as_xyz
  1  'x, y, z'
loop_
 _atom_site_type_symbol
 _atom_site_label
 _atom_site_symmetry_multiplicity
 _atom_site_fract_x
 _atom_site_fract_y
 _atom_site_fract_z
 _atom_site_occupancy
 _atom_site_hle17_bader_spin_density
 _atom_site_hle17_ddec_charge
 _atom_site_hle17_ddec_spin_density
 _atom_site_hle17_ddec_sum_bond_order
 _atom_site_hle17_magmom
 _atom_site_hse06_10hf_bader_spin_density
 _atom_site_hse06_10hf_ddec_charge
 _atom_site_hse06_10hf_ddec_spin_density
 _atom_site_hse06_10hf_ddec_sum_bond_order
 _atom_site_hse06_10hf_magmom
 _atom_site_hse06_bader_spin_density
 _atom_site_hse06_ddec_charge
 _atom_site_hse06_ddec_spin_density
 _atom_site_hse06_ddec_sum_bond_order
 _atom_site_hse06_magmom
 _atom_site_pbe_bader_spin_density
 _atom_site_pbe_cm5_charge
 _atom_site_pbe_ddec_charge
 _atom_site_pbe_ddec_spin_density
 _atom_site_pbe_ddec_sum_bond_order
 _atom_site_pbe_magmom
Ag  Ag0  1  0.00000022  0.00000128  0.49999932  1  0  0.444015  0  1.564475  0  0  0.333524  0  2.030891  0  0  0.357579  0  1.983019  0  0  0.405706  0.317177  0  2.063558  0
Ag  Ag1  1  0.66390587  0.88438601  0.37918732  1  0  0.519028  0  1.457059  0  0  0.402193  0  1.909079  0  0  0.433229  0  1.857866  0  0  0.424048  0.380753  0  1.944048  0
Ag  Ag2  1  0.33609677  0.11561387  0.62081282  1  0  0.519031  0  1.457074  0  0  0.402193  0  1.909058  0  0  0.433232  0  1.857844  0  0  0.424031  0.380754  0  1.944025  0
Ag  Ag3  1  0.49999422  0.00000017  0.00000210  1  0  0.500449  0  1.588715  0  0  0.388322  0  2.073723  0  0  0.420782  0  2.017537  0  0  0.388048  0.366181  0  2.111922  0
Ag  Ag4  1  0.45442666  0.67207603  0.02918615  1  0  0.524617  0  1.546042  0  0  0.404844  0  2.041676  0  0  0.436525  0  1.980681  0  0  0.410078  0.382638  0  2.083913  0
Ag  Ag5  1  0.54557551  0.32791657  0.97081091  1  0  0.524572  0  1.546059  0  0  0.404815  0  2.041709  0  0  0.436499  0  1.980711  0  0  0.410068  0.382608  0  2.083946  0
H  H6  1  0.28253702  0.78707994  0.58387305  1  0  0.344729  0  0.921007  0  0  0.32792  0  0.984183  0  0  0.335426  0  0.978575  0  0  0.279329  0.322536  0  0.988237  0
H  H7  1  0.71746214  0.21292113  0.41612662  1  0  0.344774  0  0.920959  0  0  0.327983  0  0.984114  0  0  0.335491  0  0.978501  0  0  0.279364  0.322597  0  0.988175  0
H  H8  1  0.21156591  0.69044903  0.48397881  1  0  0.338339  0  0.915973  0  0  0.324614  0  0.972483  0  0  0.331311  0  0.968103  0  0  0.282294  0.319822  0  0.975688  0
H  H9  1  0.78843179  0.30955083  0.51602099  1  0  0.338283  0  0.915987  0  0  0.324554  0  0.972513  0  0  0.33125  0  0.968136  0  0  0.282255  0.31976  0  0.97572  0
H  H10  1  0.03556336  0.72268889  0.59739142  1  0  0.322935  0  0.913988  0  0  0.311964  0  0.967934  0  0  0.316547  0  0.967475  0  0  0.281767  0.308655  0  0.968416  0
H  H11  1  0.96443601  0.27731096  0.40260745  1  0  0.322989  0  0.913935  0  0  0.312032  0  0.967856  0  0  0.316614  0  0.967395  0  0  0.281785  0.308722  0  0.968335  0
H  H12  1  0.73414788  0.57008695  0.34623721  1  0  0.336435  0  0.937338  0  0  0.320802  0  0.995482  0  0  0.327893  0  0.991222  0  0  0.27817  0.315744  0  0.998549  0
H  H13  1  0.26584982  0.42991291  0.65376258  1  0  0.336421  0  0.937364  0  0  0.320805  0  0.995497  0  0  0.327884  0  0.991249  0  0  0.278164  0.315749  0  0.998563  0
H  H14  1  0.79946214  0.61363586  0.46194937  1  0  0.349959  0  0.923224  0  0  0.336367  0  0.9768  0  0  0.343418  0  0.972279  0  0  0.282877  0.331338  0  0.980057  0
H  H15  1  0.20053721  0.38636400  0.53805028  1  0  0.349978  0  0.923183  0  0  0.336391  0  0.976747  0  0  0.343441  0  0.972228  0  0  0.282893  0.331362  0  0.980001  0
H  H16  1  0.97744814  0.63581711  0.34745582  1  0  0.327982  0  0.934712  0  0  0.315247  0  0.992005  0  0  0.320991  0  0.989471  0  0  0.279115  0.3111  0  0.993906  0
H  H17  1  0.02254880  0.36418759  0.65254482  1  0  0.328019  0  0.934623  0  0  0.315232  0  0.991983  0  0  0.320977  0  0.989446  0  0  0.279088  0.311084  0  0.993884  0
H  H18  1  0.74482304  0.55501104  0.14294165  1  0  0.346632  0  0.919081  0  0  0.329278  0  0.979635  0  0  0.336413  0  0.975185  0  0  0.283509  0.324173  0  0.982835  0
H  H19  1  0.25517377  0.44498398  0.85705744  1  0  0.346558  0  0.919212  0  0  0.329228  0  0.979726  0  0  0.336351  0  0.975292  0  0  0.283472  0.324127  0  0.982924  0
H  H20  1  0.73709239  0.75588971  0.14308564  1  0  0.324671  0  0.907001  0  0  0.314574  0  0.965405  0  0  0.320722  0  0.961199  0  0  0.283983  0.310101  0  0.968553  0
H  H21  1  0.26290387  0.24410892  0.85691272  1  0  0.324662  0  0.906987  0  0  0.31458  0  0.965378  0  0  0.320729  0  0.96117  0  0  0.283975  0.310107  0  0.96853  0
H  H22  1  0.89452802  0.65197255  0.04219942  1  0  0.341738  0  0.916879  0  0  0.330416  0  0.967071  0  0  0.336794  0  0.963992  0  0  0.284605  0.325859  0  0.969276  0
H  H23  1  0.10547172  0.34802489  0.95779942  1  0  0.341721  0  0.916915  0  0  0.330404  0  0.9671  0  0  0.336782  0  0.964021  0  0  0.284609  0.325844  0  0.969312  0
H  H24  1  0.32739929  0.86257383  0.28925922  1  0  0.094379  0  1.000348  0  0  0.099145  0  1.077854  0  0  0.103664  0  1.074123  0  0  0.084397  0.095925  0  1.080698  0
H  H25  1  0.67259957  0.13741876  0.71073813  1  0  0.094331  0  1.000494  0  0  0.099116  0  1.07797  0  0  0.103643  0  1.074223  0  0  0.084347  0.095891  0  1.080815  0
H  H26  1  0.04633392  0.87916219  0.17634088  1  0  0.097767  0  0.960428  0  0  0.106678  0  1.025598  0  0  0.110302  0  1.02173  0  0  0.099008  0.104019  0  1.028447  0
H  H27  1  0.95366327  0.12084126  0.82365662  1  0  0.097753  0  0.960558  0  0  0.106653  0  1.025754  0  0  0.110277  0  1.021883  0  0  0.099012  0.103994  0  1.028602  0
H  H28  1  0.06364854  0.39357155  0.15971461  1  0  0.107773  0  0.96251  0  0  0.116492  0  1.026812  0  0  0.120141  0  1.023367  0  0  0.106493  0.11384  0  1.029367  0
H  H29  1  0.93635772  0.60642594  0.84028755  1  0  0.107791  0  0.962517  0  0  0.116471  0  1.026867  0  0  0.12012  0  1.023424  0  0  0.106473  0.11382  0  1.029421  0
C  C30  1  0.27484418  0.26993566  0.25444390  1  0  -0.278633  0  3.717172  0  0  -0.250804  0  3.968128  0  0  -0.265608  0  3.987597  0  0  -0.04722  -0.241165  0  3.955165  0
C  C31  1  0.72515829  0.73006542  0.74555548  1  0  -0.278646  0  3.717102  0  0  -0.250847  0  3.96805  0  0  -0.265654  0  3.987533  0  0  -0.047231  -0.241202  0  3.955078  0
C  C32  1  0.35592445  0.11965348  0.29422978  1  0  0.371099  0  3.889677  0  0  0.35023  0  4.137028  0  0  0.371405  0  4.151197  0  0  0.078621  0.33612  0  4.12694  0
C  C33  1  0.64407925  0.88035004  0.70577183  1  0  0.371087  0  3.889879  0  0  0.350273  0  4.13715  0  0  0.371447  0  4.151326  0  0  0.078638  0.336162  0  4.127063  0
C  C34  1  0.26657994  0.98037207  0.26264220  1  0  -0.260752  0  3.816035  0  0  -0.264099  0  4.061422  0  0  -0.277011  0  4.082046  0  0  -0.131763  -0.255856  0  4.047609  0
C  C35  1  0.73342670  0.01963387  0.73735915  1  0  -0.260741  0  3.816087  0  0  -0.264088  0  4.061386  0  0  -0.277006  0  4.08201  0  0  -0.131741  -0.25584  0  4.047583  0
C  C36  1  0.10940513  0.98921229  0.19830346  1  0  -0.058705  0  3.819561  0  0  -0.080766  0  4.071214  0  0  -0.073428  0  4.086107  0  0  -0.09753  -0.085287  0  4.061001  0
C  C37  1  0.89060700  0.01079005  0.80169819  1  0  -0.058723  0  3.819648  0  0  -0.080823  0  4.071325  0  0  -0.073483  0  4.086219  0  0  -0.097576  -0.085342  0  4.061108  0
C  C38  1  0.03234885  0.13819421  0.15968913  1  0  -0.112157  0  3.793935  0  0  -0.09183  0  4.038059  0  0  -0.105975  0  4.062006  0  0  -0.044361  -0.082783  0  4.021939  0
C  C39  1  0.96765493  0.86180926  0.84030858  1  0  -0.112188  0  3.793858  0  0  -0.091828  0  4.037933  0  0  -0.105976  0  4.061883  0  0  -0.044323  -0.082781  0  4.021816  0
C  C40  1  0.12019421  0.27676680  0.18790651  1  0  -0.050107  0  3.780063  0  0  -0.087702  0  4.039551  0  0  -0.079006  0  4.053957  0  0  -0.087349  -0.093116  0  4.029711  0
C  C41  1  0.87981526  0.72323187  0.81209147  1  0  -0.050085  0  3.779911  0  0  -0.087664  0  4.039404  0  0  -0.078969  0  4.053814  0  0  -0.087314  -0.09308  0  4.029565  0
C  C42  1  0.85899577  0.14847296  0.09403697  1  0  0.661262  0  3.856993  0  0  0.604209  0  4.141022  0  0  0.64178  0  4.136622  0  0  0.206944  0.578634  0  4.14321  0
C  C43  1  0.14100189  0.85152692  0.90596439  1  0  0.661302  0  3.85707  0  0  0.604254  0  4.141066  0  0  0.641824  0  4.136668  0  0  0.206933  0.57868  0  4.143255  0
S  S44  1  0.36560767  0.45329034  0.29129527  1  0  1.316329  0  5.636587  0  0  1.211292  0  6.156062  0  0  1.26037  0  6.13156  0  0  0.505099  1.177496  0  6.171979  0
S  S45  1  0.63438706  0.54670711  0.70870634  1  0  1.316311  0  5.636415  0  0  1.211341  0  6.155833  0  0  1.260382  0  6.131352  0  0  0.505109  1.177549  0  6.171752  0
N  N46  1  0.15331535  0.77416290  0.54484465  1  0  -0.845817  0  2.986157  0  0  -0.780648  0  3.214227  0  0  -0.805677  0  3.203328  0  0  -0.796878  -0.763358  0  3.22171  0
N  N47  1  0.84668402  0.22583695  0.45515422  1  0  -0.84585  0  2.986014  0  0  -0.780728  0  3.214082  0  0  -0.805758  0  3.20318  0  0  -0.796893  -0.763437  0  3.221568  0
N  N48  1  0.81356932  0.64878387  0.38450649  1  0  -0.868348  0  3.048988  0  0  -0.804174  0  3.289519  0  0  -0.830784  0  3.277122  0  0  -0.814419  -0.785671  0  3.297785  0
N  N49  1  0.18642838  0.35121599  0.61549330  1  0  -0.868414  0  3.04887  0  0  -0.804184  0  3.289447  0  0  -0.830798  0  3.277067  0  0  -0.814399  -0.785682  0  3.297709  0
N  N50  1  0.74743593  0.65459766  0.09607295  1  0  -0.855453  0  3.009263  0  0  -0.795555  0  3.241309  0  0  -0.821952  0  3.229356  0  0  -0.797094  -0.777162  0  3.249431  0
N  N51  1  0.25256234  0.34539857  0.90392601  1  0  -0.855364  0  3.009365  0  0  -0.795494  0  3.241377  0  0  -0.821894  0  3.22944  0  0  -0.797048  -0.7771  0  3.24949  0
O  O52  1  0.61000058  0.43421084  0.26438744  1  0  -0.663125  0  2.010743  0  0  -0.598778  0  2.249856  0  0  -0.621775  0  2.239114  0  0  -0.331508  -0.582634  0  2.256771  0
O  O53  1  0.38999511  0.56579142  0.73561175  1  0  -0.663004  0  2.01058  0  0  -0.59878  0  2.249792  0  0  -0.621681  0  2.238977  0  0  -0.331519  -0.58265  0  2.256712  0
O  O54  1  0.28156037  0.47757599  0.40681033  1  0  -0.688559  0  1.978092  0  0  -0.624024  0  2.212982  0  0  -0.644674  0  2.19874  0  0  -0.346681  -0.609406  0  2.222378  0
O  O55  1  0.71843881  0.52242507  0.59318855  1  0  -0.688573  0  1.978048  0  0  -0.624016  0  2.212881  0  0  -0.644663  0  2.19865  0  0  -0.346677  -0.609396  0  2.222275  0
O  O56  1  0.26199387  0.58094104  0.23158421  1  0  -0.69051  0  1.976904  0  0  -0.623892  0  2.235682  0  0  -0.647577  0  2.220925  0  0  -0.350817  -0.607087  0  2.245283  0
O  O57  1  0.73800604  0.41905520  0.76841539  1  0  -0.690516  0  1.976959  0  0  -0.623879  0  2.235686  0  0  -0.647585  0  2.220963  0  0  -0.35078  -0.607074  0  2.245285  0
O  O58  1  0.50052598  0.11209195  0.35728800  1  0  -0.60561  0  2.18435  0  0  -0.523091  0  2.463417  0  0  -0.5541  0  2.45497  0  0  -0.350422  -0.501347  0  2.468236  0
O  O59  1  0.49947679  0.88790675  0.64271447  1  0  -0.605607  0  2.184336  0  0  -0.523083  0  2.463346  0  0  -0.554096  0  2.454907  0  0  -0.350424  -0.501341  0  2.468168  0
O  O60  1  0.82961804  0.27889391  0.04272704  1  0  -0.61667  0  2.128899  0  0  -0.524351  0  2.390899  0  0  -0.556731  0  2.379891  0  0  -0.328734  -0.501886  0  2.397814  0
O  O61  1  0.17038365  0.72111202  0.95727396  1  0  -0.616678  0  2.129015  0  0  -0.524317  0  2.390945  0  0  -0.556696  0  2.379943  0  0  -0.328697  -0.501853  0  2.397862  0
O  O62  1  0.74962495  0.02685721  0.09304870  1  0  -0.603436  0  2.132552  0  0  -0.517472  0  2.401153  0  0  -0.551814  0  2.393381  0  0  -0.322437  -0.493672  0  2.405503  0
O  O63  1  0.25037020  0.97314867  0.90694976  1  0  -0.60345  0  2.132482  0  0  -0.517517  0  2.401107  0  0  -0.551865  0  2.393341  0  0  -0.322472  -0.493714  0  2.405455  0
