# generated using pymatgen
data_UH6C3SeN2O7
_symmetry_space_group_name_H-M   'P 1'
_cell_length_a   8.88738418
_cell_length_b   10.01562252
_cell_length_c   10.63861739
_cell_angle_alpha   90.00008061
_cell_angle_beta   90.00000759
_cell_angle_gamma   89.61275200
_symmetry_Int_Tables_number   1
_chemical_formula_structural   UH6C3SeN2O7
_chemical_formula_sum   'U4 H24 C12 Se4 N8 O28'
_cell_volume   946.95027085
_cell_formula_units_Z   4
loop_
 _symmetry_equiv_pos_site_id
 _symmetry_equiv_pos_as_xyz
  1  'x, y, z'
loop_
 _atom_site_type_symbol
 _atom_site_label
 _atom_site_symmetry_multiplicity
 _atom_site_fract_x
 _atom_site_fract_y
 _atom_site_fract_z
 _atom_site_occupancy
 _atom_site_hle17_bader_spin_density
 _atom_site_hle17_ddec_charge
 _atom_site_hle17_ddec_spin_density
 _atom_site_hle17_ddec_sum_bond_order
 _atom_site_hle17_magmom
 _atom_site_hse06_10hf_bader_spin_density
 _atom_site_hse06_10hf_ddec_charge
 _atom_site_hse06_10hf_ddec_spin_density
 _atom_site_hse06_10hf_ddec_sum_bond_order
 _atom_site_hse06_10hf_magmom
 _atom_site_hse06_bader_spin_density
 _atom_site_hse06_ddec_charge
 _atom_site_hse06_ddec_spin_density
 _atom_site_hse06_ddec_sum_bond_order
 _atom_site_hse06_magmom
 _atom_site_pbe_bader_spin_density
 _atom_site_pbe_cm5_charge
 _atom_site_pbe_ddec_charge
 _atom_site_pbe_ddec_spin_density
 _atom_site_pbe_ddec_sum_bond_order
 _atom_site_pbe_magmom
U  U0  1  0.88647509  0.81323803  0.79030065  1  0  2.519905  0  4.151152  0  0  2.587474  0  4.802208  0  0  2.69898  0  4.763874  0  0  2.116909  2.506983  0  4.832322  0
U  U1  1  0.61352405  0.68676292  0.29030231  1  0  2.520025  0  4.151118  0  0  2.58758  0  4.802138  0  0  2.699088  0  4.763821  0  0  2.116939  2.50708  0  4.83225  0
U  U2  1  0.11352586  0.18676280  0.20969843  1  0  2.520002  0  4.151059  0  0  2.587537  0  4.802119  0  0  2.699067  0  4.763768  0  0  2.116888  2.507039  0  4.832222  0
U  U3  1  0.38647690  0.31323692  0.70969865  1  0  2.52  0  4.1511  0  0  2.587569  0  4.802121  0  0  2.699093  0  4.763785  0  0  2.11693  2.507088  0  4.83223  0
H  H4  1  0.27502024  0.51477370  0.97216804  1  0  0.369756  0  0.874726  0  0  0.354874  0  0.928037  0  0  0.363243  0  0.920393  0  0  0.321299  0.349186  0  0.933277  0
H  H5  1  0.22497896  0.98522719  0.47216728  1  0  0.369776  0  0.874671  0  0  0.354892  0  0.927983  0  0  0.363262  0  0.920337  0  0  0.321292  0.349204  0  0.933219  0
H  H6  1  0.72497734  0.48522716  0.02783292  1  0  0.369796  0  0.874671  0  0  0.354856  0  0.928072  0  0  0.363225  0  0.920427  0  0  0.321263  0.349167  0  0.933309  0
H  H7  1  0.77501862  0.01477466  0.52783274  1  0  0.369772  0  0.874693  0  0  0.354891  0  0.928001  0  0  0.363261  0  0.920355  0  0  0.321307  0.349205  0  0.933242  0
H  H8  1  0.31831057  0.52137158  0.13552361  1  0  0.359216  0  0.880391  0  0  0.337489  0  0.94781  0  0  0.346988  0  0.939274  0  0  0.318017  0.330858  0  0.953644  0
H  H9  1  0.18168858  0.97862881  0.63552215  1  0  0.359226  0  0.880407  0  0  0.337494  0  0.947831  0  0  0.346994  0  0.939293  0  0  0.318026  0.330866  0  0.953668  0
H  H10  1  0.68168926  0.47862926  0.86447641  1  0  0.359209  0  0.880394  0  0  0.337494  0  0.947797  0  0  0.346994  0  0.939259  0  0  0.31803  0.330864  0  0.953633  0
H  H11  1  0.81830900  0.02137205  0.36447599  1  0  0.359227  0  0.880367  0  0  0.337515  0  0.94777  0  0  0.347015  0  0.939231  0  0  0.318036  0.330884  0  0.953602  0
H  H12  1  0.60331639  0.99410311  0.81657579  1  0  0.35136  0  0.870803  0  0  0.333799  0  0.931011  0  0  0.341497  0  0.924323  0  0  0.324122  0.328439  0  0.935747  0
H  H13  1  0.89668388  0.50589588  0.31657535  1  0  0.351342  0  0.870808  0  0  0.33378  0  0.931016  0  0  0.341478  0  0.924329  0  0  0.324123  0.328419  0  0.935751  0
H  H14  1  0.39668344  0.00589773  0.18342612  1  0  0.351364  0  0.870783  0  0  0.333799  0  0.930995  0  0  0.341496  0  0.924308  0  0  0.324125  0.328439  0  0.935732  0
H  H15  1  0.10331707  0.49410396  0.68342467  1  0  0.35136  0  0.870787  0  0  0.333796  0  0.930994  0  0  0.341499  0  0.924299  0  0  0.32413  0.328438  0  0.93573  0
H  H16  1  0.41276466  0.00824315  0.85417305  1  0  0.360081  0  0.901318  0  0  0.339109  0  0.965246  0  0  0.348846  0  0.956989  0  0  0.308973  0.332175  0  0.971248  0
H  H17  1  0.08723475  0.49175581  0.35417417  1  0  0.360084  0  0.901317  0  0  0.339106  0  0.965246  0  0  0.348844  0  0.956988  0  0  0.308974  0.332172  0  0.971246  0
H  H18  1  0.58723517  0.99175670  0.14582697  1  0  0.3601  0  0.901302  0  0  0.339118  0  0.965237  0  0  0.348855  0  0.95698  0  0  0.30897  0.332183  0  0.971236  0
H  H19  1  0.91276508  0.50824304  0.64582773  1  0  0.360087  0  0.901311  0  0  0.339116  0  0.965236  0  0  0.348853  0  0.956978  0  0  0.308982  0.332182  0  0.971235  0
H  H20  1  0.33857683  0.67931137  0.83739782  1  0  0.152929  0  0.920923  0  0  0.163288  0  0.978572  0  0  0.16714  0  0.975999  0  0  0.124569  0.160648  0  0.980549  0
H  H21  1  0.16142235  0.82068832  0.33739778  1  0  0.152935  0  0.920905  0  0  0.163287  0  0.978556  0  0  0.167141  0  0.975984  0  0  0.124573  0.160645  0  0.980534  0
H  H22  1  0.66142413  0.32068847  0.16260126  1  0  0.152932  0  0.920907  0  0  0.163289  0  0.978557  0  0  0.167142  0  0.975985  0  0  0.12457  0.160648  0  0.980532  0
H  H23  1  0.83857748  0.17931152  0.66260224  1  0  0.152925  0  0.920928  0  0  0.163277  0  0.978582  0  0  0.16713  0  0.97601  0  0  0.124569  0.160638  0  0.980559  0
H  H24  1  0.27283810  0.82559289  0.91334105  1  0  0.163423  0  0.933304  0  0  0.171993  0  0.992751  0  0  0.177314  0  0.989089  0  0  0.122362  0.16829  0  0.995357  0
H  H25  1  0.22716109  0.67440691  0.41334082  1  0  0.163423  0  0.93331  0  0  0.171957  0  0.992804  0  0  0.177273  0  0.989153  0  0  0.122359  0.168265  0  0.995394  0
H  H26  1  0.72716173  0.17440695  0.08665803  1  0  0.163422  0  0.933318  0  0  0.171985  0  0.992773  0  0  0.177304  0  0.989113  0  0  0.122358  0.168289  0  0.995364  0
H  H27  1  0.77283986  0.32559393  0.58666014  1  0  0.163434  0  0.933316  0  0  0.171973  0  0.992799  0  0  0.17729  0  0.989147  0  0  0.12237  0.168276  0  0.995392  0
C  C28  1  0.51186277  0.82051033  0.87406152  1  0  0.709771  0  3.761997  0  0  0.670643  0  4.052004  0  0  0.703158  0  4.048484  0  0  0.265611  0.648412  0  4.053766  0
C  C29  1  0.98813639  0.67948875  0.37406039  1  0  0.709805  0  3.761986  0  0  0.670709  0  4.051926  0  0  0.703226  0  4.048398  0  0  0.265624  0.648472  0  4.053699  0
C  C30  1  0.48813706  0.17948851  0.12593944  1  0  0.709836  0  3.762015  0  0  0.67067  0  4.052069  0  0  0.703186  0  4.048545  0  0  0.265619  0.648438  0  4.053838  0
C  C31  1  0.01186344  0.32051010  0.62593963  1  0  0.709833  0  3.761945  0  0  0.670704  0  4.05194  0  0  0.703221  0  4.048413  0  0  0.265622  0.648469  0  4.053712  0
C  C32  1  0.36619387  0.75299915  0.91029550  1  0  -0.419478  0  3.601117  0  0  -0.447351  0  3.817857  0  0  -0.458244  0  3.819066  0  0  -0.14218  -0.440078  0  3.817192  0
C  C33  1  0.13380532  0.74699965  0.41029630  1  0  -0.419456  0  3.601172  0  0  -0.447297  0  3.817894  0  0  -0.458194  0  3.819115  0  0  -0.142162  -0.44004  0  3.817215  0
C  C34  1  0.63380483  0.24700070  0.08970358  1  0  -0.419473  0  3.601142  0  0  -0.447324  0  3.817854  0  0  -0.458221  0  3.819066  0  0  -0.142162  -0.440049  0  3.817185  0
C  C35  1  0.86619563  0.25299919  0.58970466  1  0  -0.419459  0  3.601193  0  0  -0.447302  0  3.817902  0  0  -0.458199  0  3.81912  0  0  -0.14216  -0.440029  0  3.817231  0
C  C36  1  0.37504066  0.68485800  0.03674115  1  0  0.72556  0  3.730454  0  0  0.687422  0  4.014672  0  0  0.720187  0  4.011403  0  0  0.27547  0.665106  0  4.016089  0
C  C37  1  0.12495960  0.81514223  0.53674041  1  0  0.725526  0  3.730532  0  0  0.687402  0  4.014735  0  0  0.720167  0  4.011464  0  0  0.275475  0.665108  0  4.016124  0
C  C38  1  0.62495917  0.31514284  0.96325887  1  0  0.725559  0  3.730497  0  0  0.68745  0  4.014662  0  0  0.720222  0  4.011382  0  0  0.27547  0.665102  0  4.016128  0
C  C39  1  0.87503910  0.18485762  0.46325962  1  0  0.725502  0  3.730589  0  0  0.687402  0  4.014748  0  0  0.720167  0  4.011476  0  0  0.275465  0.665076  0  4.016179  0
Se  Se40  1  0.10833472  0.10470598  0.88600054  1  0  1.318331  0  3.460196  0  0  1.27145  0  3.940198  0  0  1.316055  0  3.918708  0  0  0.691781  1.239273  0  3.954025  0
Se  Se41  1  0.39166582  0.39529401  0.38600251  1  0  1.31832  0  3.460277  0  0  1.271427  0  3.940266  0  0  1.316034  0  3.918774  0  0  0.691774  1.239247  0  3.954092  0
Se  Se42  1  0.89166623  0.89529386  0.11399666  1  0  1.318268  0  3.460279  0  0  1.271371  0  3.940279  0  0  1.315977  0  3.918786  0  0  0.691737  1.239179  0  3.954098  0
Se  Se43  1  0.60833513  0.60470582  0.61399845  1  0  1.318237  0  3.460189  0  0  1.271359  0  3.940188  0  0  1.315967  0  3.918691  0  0  0.691723  1.239178  0  3.954009  0
N  N44  1  0.31421847  0.56552956  0.04878493  1  0  -0.646541  0  3.044331  0  0  -0.608594  0  3.263802  0  0  -0.631823  0  3.256598  0  0  -0.529457  -0.592561  0  3.26813  0
N  N45  1  0.18577954  0.93447071  0.54878435  1  0  -0.646565  0  3.044362  0  0  -0.608605  0  3.263821  0  0  -0.631835  0  3.256618  0  0  -0.529452  -0.592579  0  3.268149  0
N  N46  1  0.68578023  0.43447129  0.95121510  1  0  -0.646548  0  3.044333  0  0  -0.608573  0  3.263821  0  0  -0.631804  0  3.256613  0  0  -0.529429  -0.592531  0  3.26817  0
N  N47  1  0.81421916  0.06553014  0.45121567  1  0  -0.646537  0  3.044368  0  0  -0.608616  0  3.263809  0  0  -0.631845  0  3.256604  0  0  -0.529476  -0.592586  0  3.268145  0
N  N48  1  0.50792272  0.94925731  0.84810428  1  0  -0.642896  0  3.079489  0  0  -0.605882  0  3.308811  0  0  -0.6282  0  3.302009  0  0  -0.535237  -0.590573  0  3.313468  0
N  N49  1  0.99207644  0.55074173  0.34810392  1  0  -0.642889  0  3.07951  0  0  -0.605889  0  3.308836  0  0  -0.628206  0  3.30203  0  0  -0.535258  -0.590586  0  3.313495  0
N  N50  1  0.49207711  0.05074353  0.15189668  1  0  -0.642959  0  3.079554  0  0  -0.605926  0  3.308901  0  0  -0.628244  0  3.302096  0  0  -0.535257  -0.590619  0  3.313558  0
N  N51  1  0.00792451  0.44925811  0.65189704  1  0  -0.642908  0  3.079471  0  0  -0.605908  0  3.308828  0  0  -0.628233  0  3.302015  0  0  -0.535258  -0.590598  0  3.313486  0
O  O52  1  0.79246827  0.94232228  0.69509475  1  0  -0.785387  0  1.591553  0  0  -0.7878  0  1.878232  0  0  -0.810255  0  1.863241  0  0  -0.755067  -0.773568  0  1.889589  0
O  O53  1  0.70752974  0.55767654  0.19509531  1  0  -0.785412  0  1.591482  0  0  -0.787806  0  1.878162  0  0  -0.810263  0  1.863174  0  0  -0.755048  -0.773575  0  1.889516  0
O  O54  1  0.20753043  0.05767757  0.30490433  1  0  -0.785399  0  1.591512  0  0  -0.787807  0  1.878199  0  0  -0.810269  0  1.863206  0  0  -0.755065  -0.773588  0  1.889558  0
O  O55  1  0.29247122  0.44232130  0.80490659  1  0  -0.785394  0  1.591523  0  0  -0.787798  0  1.878174  0  0  -0.810261  0  1.863188  0  0  -0.755064  -0.773571  0  1.889534  0
O  O56  1  0.97110917  0.68904019  0.89369935  1  0  -0.729143  0  1.478997  0  0  -0.736965  0  1.746919  0  0  -0.757362  0  1.733819  0  0  -0.764529  -0.724107  0  1.75702  0
O  O57  1  0.52889112  0.81096091  0.39370022  1  0  -0.729196  0  1.479013  0  0  -0.737025  0  1.746943  0  0  -0.757425  0  1.733844  0  0  -0.764563  -0.724171  0  1.757046  0
O  O58  1  0.02888953  0.31096165  0.10629973  1  0  -0.729177  0  1.478953  0  0  -0.737001  0  1.746882  0  0  -0.757405  0  1.733778  0  0  -0.764542  -0.724156  0  1.756987  0
O  O59  1  0.47111096  0.18903992  0.60629886  1  0  -0.729187  0  1.479048  0  0  -0.737016  0  1.746971  0  0  -0.757419  0  1.733867  0  0  -0.764543  -0.724162  0  1.757073  0
O  O60  1  0.09785293  0.95465065  0.80748527  1  0  -0.833393  0  1.8438  0  0  -0.821872  0  2.145415  0  0  -0.85541  0  2.133943  0  0  -0.472391  -0.797016  0  2.152266  0
O  O61  1  0.40214625  0.54534999  0.30748677  1  0  -0.833374  0  1.843765  0  0  -0.821851  0  2.145377  0  0  -0.855391  0  2.133908  0  0  -0.472383  -0.796997  0  2.152225  0
O  O62  1  0.90214690  0.04534820  0.19251288  1  0  -0.833333  0  1.84375  0  0  -0.821822  0  2.145386  0  0  -0.855368  0  2.133915  0  0  -0.472374  -0.79697  0  2.152229  0
O  O63  1  0.59785583  0.45464984  0.69251419  1  0  -0.833336  0  1.843755  0  0  -0.821822  0  2.145362  0  0  -0.855364  0  2.133893  0  0  -0.472361  -0.796966  0  2.152206  0
O  O64  1  0.15546770  0.05193104  0.03683848  1  0  -0.823936  0  1.803007  0  0  -0.819513  0  2.108933  0  0  -0.855143  0  2.100116  0  0  -0.482917  -0.793095  0  2.11363  0
O  O65  1  0.34453504  0.44807041  0.53683981  1  0  -0.823913  0  1.80302  0  0  -0.8195  0  2.108954  0  0  -0.85513  0  2.100135  0  0  -0.482911  -0.793105  0  2.1137  0
O  O66  1  0.84453438  0.94807178  0.96315967  1  0  -0.823916  0  1.803026  0  0  -0.819513  0  2.108983  0  0  -0.85514  0  2.100159  0  0  -0.48292  -0.793105  0  2.113706  0
O  O67  1  0.65546704  0.55193042  0.46315927  1  0  -0.82391  0  1.803005  0  0  -0.819509  0  2.108961  0  0  -0.855137  0  2.10014  0  0  -0.482919  -0.793084  0  2.113649  0
O  O68  1  0.28573650  0.14847992  0.83623096  1  0  -0.819062  0  1.879783  0  0  -0.807021  0  2.184604  0  0  -0.842216  0  2.174057  0  0  -0.483034  -0.781007  0  2.191071  0
O  O69  1  0.21426516  0.35152100  0.33623379  1  0  -0.819139  0  1.879942  0  0  -0.807062  0  2.18474  0  0  -0.842255  0  2.174188  0  0  -0.483061  -0.781045  0  2.191202  0
O  O70  1  0.71426333  0.85151993  0.16376436  1  0  -0.819087  0  1.879822  0  0  -0.807009  0  2.184624  0  0  -0.842197  0  2.174072  0  0  -0.483029  -0.780992  0  2.191084  0
O  O71  1  0.78573579  0.64847984  0.66376812  1  0  -0.819055  0  1.879832  0  0  -0.806998  0  2.18463  0  0  -0.84219  0  2.174079  0  0  -0.483029  -0.780983  0  2.191093  0
O  O72  1  0.63127810  0.75033779  0.86541562  1  0  -0.680152  0  2.02508  0  0  -0.663793  0  2.299137  0  0  -0.69465  0  2.293837  0  0  -0.344369  -0.641344  0  2.301622  0
O  O73  1  0.86872105  0.74966128  0.36541457  1  0  -0.680208  0  2.025096  0  0  -0.663853  0  2.299138  0  0  -0.694709  0  2.293835  0  0  -0.344404  -0.641405  0  2.301624  0
O  O74  1  0.36872172  0.24966206  0.13458440  1  0  -0.680168  0  2.025047  0  0  -0.663798  0  2.299127  0  0  -0.694656  0  2.293825  0  0  -0.34437  -0.641352  0  2.301616  0
O  O75  1  0.13127877  0.25033856  0.63458451  1  0  -0.680251  0  2.025116  0  0  -0.663868  0  2.299156  0  0  -0.694724  0  2.293853  0  0  -0.344411  -0.641422  0  2.301652  0
O  O76  1  0.43488043  0.74571264  0.12875033  1  0  -0.650354  0  1.996828  0  0  -0.618747  0  2.249048  0  0  -0.650103  0  2.243274  0  0  -0.359901  -0.595987  0  2.252141  0
O  O77  1  0.06511984  0.75428873  0.62874950  1  0  -0.650321  0  1.996764  0  0  -0.618753  0  2.249005  0  0  -0.65011  0  2.243231  0  0  -0.359924  -0.596  0  2.252091  0
O  O78  1  0.56512052  0.25428720  0.87124875  1  0  -0.650392  0  1.996789  0  0  -0.6188  0  2.248998  0  0  -0.650162  0  2.243222  0  0  -0.359911  -0.59603  0  2.252108  0
O  O79  1  0.93487999  0.24571211  0.37124958  1  0  -0.650356  0  1.996821  0  0  -0.618756  0  2.249011  0  0  -0.650117  0  2.243237  0  0  -0.359911  -0.595997  0  2.252106  0
