# generated using pymatgen
data_Ca2H15C16NO12
_symmetry_space_group_name_H-M   'P 1'
_cell_length_a   9.57246296
_cell_length_b   10.45116714
_cell_length_c   11.42905511
_cell_angle_alpha   75.71096520
_cell_angle_beta   83.64208051
_cell_angle_gamma   81.22119013
_symmetry_Int_Tables_number   1
_chemical_formula_structural   Ca2H15C16NO12
_chemical_formula_sum   'Ca4 H30 C32 N2 O24'
_cell_volume   1091.85564543
_cell_formula_units_Z   2
loop_
 _symmetry_equiv_pos_site_id
 _symmetry_equiv_pos_as_xyz
  1  'x, y, z'
loop_
 _atom_site_type_symbol
 _atom_site_label
 _atom_site_symmetry_multiplicity
 _atom_site_fract_x
 _atom_site_fract_y
 _atom_site_fract_z
 _atom_site_occupancy
 _atom_site_hle17_bader_spin_density
 _atom_site_hle17_ddec_charge
 _atom_site_hle17_ddec_spin_density
 _atom_site_hle17_ddec_sum_bond_order
 _atom_site_hle17_magmom
 _atom_site_hse06_10hf_bader_spin_density
 _atom_site_hse06_10hf_ddec_charge
 _atom_site_hse06_10hf_ddec_spin_density
 _atom_site_hse06_10hf_ddec_sum_bond_order
 _atom_site_hse06_10hf_magmom
 _atom_site_hse06_bader_spin_density
 _atom_site_hse06_ddec_charge
 _atom_site_hse06_ddec_spin_density
 _atom_site_hse06_ddec_sum_bond_order
 _atom_site_hse06_magmom
 _atom_site_pbe_bader_spin_density
 _atom_site_pbe_cm5_charge
 _atom_site_pbe_ddec_charge
 _atom_site_pbe_ddec_spin_density
 _atom_site_pbe_ddec_sum_bond_order
 _atom_site_pbe_magmom
Ca  Ca0  1  0.50000095  0.00000127  0.49999741  1  0  1.568424  0  1.095194  0  0  1.413107  0  1.468956  0  0  1.460987  0  1.419207  0  0  0.903621  1.376598  0  1.504855  0
Ca  Ca1  1  0.45418156  0.40870034  0.36578716  1  0  1.528901  0  1.128379  0  0  1.395269  0  1.483594  0  0  1.441995  0  1.435344  0  0  0.896203  1.361471  0  1.517164  0
Ca  Ca2  1  0.54581342  0.59130233  0.63421127  1  0  1.528971  0  1.12819  0  0  1.395219  0  1.483617  0  0  1.442087  0  1.435127  0  0  0.89621  1.361429  0  1.517191  0
Ca  Ca3  1  0.49999835  0.50000254  0.99999900  1  0  1.565779  0  1.145509  0  0  1.43319  0  1.515042  0  0  1.476729  0  1.467981  0  0  0.92222  1.39939  0  1.550926  0
H  H4  1  0.04254557  0.72275595  0.95719558  1  0  0.131752  0  0.93148  0  0  0.144996  0  0.981767  0  0  0.148951  0  0.979452  0  0  0.116652  0.142128  0  0.98359  0
H  H5  1  0.95744650  0.27724472  0.04280617  1  0  0.131702  0  0.931466  0  0  0.144946  0  0.981754  0  0  0.1489  0  0.97944  0  0  0.116641  0.142081  0  0.983573  0
H  H6  1  0.76000123  0.68382004  0.99581575  1  0  0.138628  0  0.986626  0  0  0.145006  0  1.049275  0  0  0.149318  0  1.046528  0  0  0.115893  0.141924  0  1.051219  0
H  H7  1  0.23999178  0.31618162  0.00418395  1  0  0.138697  0  0.986632  0  0  0.14503  0  1.049321  0  0  0.149343  0  1.046573  0  0  0.115898  0.141953  0  1.051258  0
H  H8  1  0.35520006  0.78526571  0.12472500  1  0  0.154919  0  0.958757  0  0  0.161132  0  1.019392  0  0  0.165598  0  1.016191  0  0  0.12476  0.157768  0  1.022027  0
H  H9  1  0.64481086  0.21473600  0.87526881  1  0  0.154917  0  0.958717  0  0  0.161103  0  1.019391  0  0  0.165568  0  1.016191  0  0  0.12475  0.157738  0  1.022033  0
H  H10  1  0.34674528  0.05210402  0.01383663  1  0  0.132163  0  0.940103  0  0  0.144461  0  0.992898  0  0  0.14734  0  0.992184  0  0  0.116639  0.142202  0  0.993805  0
H  H11  1  0.65327196  0.94789771  0.98615578  1  0  0.132151  0  0.940143  0  0  0.144468  0  0.992924  0  0  0.147346  0  0.992212  0  0  0.11667  0.14221  0  0.993836  0
H  H12  1  0.19247152  0.19637789  0.72324188  1  0  0.147676  0  0.929883  0  0  0.166653  0  0.989489  0  0  0.16883  0  0.989593  0  0  0.108364  0.165041  0  0.989537  0
H  H13  1  0.80753222  0.80362185  0.27676086  1  0  0.147642  0  0.929899  0  0  0.166612  0  0.989517  0  0  0.168788  0  0.989622  0  0  0.108353  0.165  0  0.989559  0
H  H14  1  0.20998807  0.01908640  0.76674368  1  0  0.138553  0  0.927687  0  0  0.160391  0  0.979644  0  0  0.162729  0  0.978634  0  0  0.107694  0.158617  0  0.980559  0
H  H15  1  0.79001672  0.98091334  0.23325898  1  0  0.138598  0  0.927686  0  0  0.160425  0  0.97964  0  0  0.162763  0  0.978635  0  0  0.107704  0.158652  0  0.980563  0
H  H16  1  0.03805330  0.11581331  0.76011371  1  0  0.126199  0  0.955169  0  0  0.146078  0  1.013399  0  0  0.148148  0  1.013203  0  0  0.098215  0.144507  0  1.013762  0
H  H17  1  0.96195346  0.88418743  0.23988855  1  0  0.126185  0  0.955098  0  0  0.14608  0  1.013304  0  0  0.148151  0  1.013107  0  0  0.098238  0.144512  0  1.013667  0
H  H18  1  0.10270374  0.26509087  0.33712895  1  0  0.111912  0  0.932534  0  0  0.130776  0  0.996337  0  0  0.131589  0  0.995978  0  0  0.109784  0.130162  0  0.996556  0
H  H19  1  0.89730069  0.73490389  0.66287662  1  0  0.11191  0  0.932586  0  0  0.130778  0  0.996382  0  0  0.13159  0  0.996025  0  0  0.109786  0.130162  0  0.996602  0
H  H20  1  0.95440308  0.17389942  0.36002081  1  0  0.10341  0  0.928085  0  0  0.125959  0  0.985011  0  0  0.126331  0  0.985323  0  0  0.109191  0.125497  0  0.985081  0
H  H21  1  0.04560095  0.82609833  0.63998237  1  0  0.103476  0  0.928169  0  0  0.126026  0  0.985069  0  0  0.126398  0  0.985386  0  0  0.109224  0.125565  0  0.985141  0
H  H22  1  0.13146345  0.08699651  0.37087522  1  0  0.104591  0  0.951418  0  0  0.120927  0  1.018538  0  0  0.122347  0  1.018009  0  0  0.108409  0.119892  0  1.018869  0
H  H23  1  0.86853845  0.91300124  0.62912988  1  0  0.104612  0  0.951458  0  0  0.120936  0  1.018569  0  0  0.122354  0  1.018044  0  0  0.108412  0.119903  0  1.018897  0
H  H24  1  0.86756900  0.19130675  0.64056843  1  0  0.086584  0  0.956964  0  0  0.104606  0  1.025071  0  0  0.103908  0  1.027097  0  0  0.099695  0.105107  0  1.023753  0
H  H25  1  0.13243218  0.80868898  0.35943456  1  0  0.086594  0  0.956912  0  0  0.104589  0  1.025049  0  0  0.103891  0  1.027075  0  0  0.09971  0.105094  0  1.023728  0
H  H26  1  0.85837846  0.29518904  0.49222041  1  0  0.124194  0  0.952378  0  0  0.142806  0  1.012863  0  0  0.14481  0  1.011546  0  0  0.116897  0.141208  0  1.014096  0
H  H27  1  0.14162195  0.70480470  0.50778311  1  0  0.124168  0  0.952327  0  0  0.142789  0  1.012807  0  0  0.144794  0  1.011491  0  0  0.116908  0.141193  0  1.014045  0
H  H28  1  0.96532480  0.33064444  0.59577341  1  0  0.098218  0  0.944162  0  0  0.115392  0  1.011805  0  0  0.116461  0  1.010925  0  0  0.103287  0.114618  0  1.012602  0
H  H29  1  0.03467412  0.66935228  0.40423042  1  0  0.098217  0  0.944138  0  0  0.115388  0  1.011781  0  0  0.116456  0  1.010904  0  0  0.103304  0.114617  0  1.012572  0
H  H30  1  0.23979780  0.47059350  0.55970436  1  0  0.423387  0  0.881429  0  0  0.390868  0  0.94935  0  0  0.401802  0  0.933336  0  0  0.297374  0.383123  0  0.960697  0
H  H31  1  0.76020311  0.52940422  0.44029645  1  0  0.423378  0  0.88144  0  0  0.390862  0  0.949355  0  0  0.401796  0  0.933341  0  0  0.297355  0.383116  0  0.960703  0
H  H32  1  0.18147417  0.45386637  0.43968946  1  0  0.417318  0  0.863949  0  0  0.391641  0  0.93075  0  0  0.401909  0  0.915536  0  0  0.305839  0.384222  0  0.94176  0
H  H33  1  0.81852223  0.54613333  0.56031302  1  0  0.417317  0  0.863916  0  0  0.391643  0  0.93075  0  0  0.401909  0  0.915538  0  0  0.305826  0.384224  0  0.941759  0
C  C34  1  0.20600117  0.55702777  0.16345925  1  0  0.643175  0  4.001974  0  0  0.591363  0  4.305617  0  0  0.625742  0  4.295332  0  0  0.219903  0.567727  0  4.312195  0
C  C35  1  0.79399257  0.44297590  0.83654167  1  0  0.64311  0  4.001892  0  0  0.59134  0  4.305485  0  0  0.625734  0  4.295186  0  0  0.219884  0.567716  0  4.312053  0
C  C36  1  0.05519621  0.58729746  0.13684429  1  0  0.078353  0  3.67684  0  0  0.070431  0  3.948167  0  0  0.072764  0  3.961736  0  0  0.067587  0.068617  0  3.939248  0
C  C37  1  0.94479543  0.41270621  0.86315681  1  0  0.078265  0  3.676938  0  0  0.070254  0  3.948255  0  0  0.072573  0  3.961833  0  0  0.067498  0.068432  0  3.939343  0
C  C38  1  0.98960347  0.66309934  0.03614519  1  0  -0.14695  0  3.747768  0  0  -0.178262  0  4.010788  0  0  -0.180626  0  4.028726  0  0  -0.104553  -0.176352  0  3.998608  0
C  C39  1  0.01038819  0.33690432  0.96385503  1  0  -0.146849  0  3.747645  0  0  -0.178158  0  4.01066  0  0  -0.180516  0  4.02861  0  0  -0.104527  -0.176247  0  3.998489  0
C  C40  1  0.84503928  0.64255939  0.05533184  1  0  -0.148608  0  3.732926  0  0  -0.17948  0  3.997742  0  0  -0.181093  0  4.015617  0  0  -0.099067  -0.178049  0  3.985238  0
C  C41  1  0.15495374  0.35744228  0.94466698  1  0  -0.148672  0  3.733006  0  0  -0.179454  0  3.997857  0  0  -0.18109  0  4.015711  0  0  -0.09905  -0.178038  0  3.985344  0
C  C42  1  0.83048968  0.55541600  0.16698902  1  0  0.07563  0  3.684039  0  0  0.06723  0  3.955901  0  0  0.068622  0  3.969238  0  0  0.069451  0.066404  0  3.946683  0
C  C43  1  0.16950242  0.44458467  0.83301098  1  0  0.075782  0  3.684001  0  0  0.06713  0  3.956055  0  0  0.068589  0  3.969313  0  0  0.069481  0.066331  0  3.946798  0
C  C44  1  0.70902349  0.49281152  0.23450457  1  0  0.631953  0  3.982054  0  0  0.582912  0  4.272561  0  0  0.617389  0  4.263329  0  0  0.218479  0.559263  0  4.278236  0
C  C45  1  0.29097085  0.50718816  0.76549547  1  0  0.631831  0  3.982321  0  0  0.58286  0  4.272811  0  0  0.617316  0  4.26359  0  0  0.218439  0.559216  0  4.278463  0
C  C46  1  0.44626405  0.74297714  0.38625884  1  0  0.657861  0  3.975394  0  0  0.607004  0  4.269886  0  0  0.642234  0  4.259226  0  0  0.231409  0.582995  0  4.27663  0
C  C47  1  0.55373828  0.25702556  0.61373897  1  0  0.657951  0  3.975294  0  0  0.607067  0  4.269838  0  0  0.642315  0  4.259138  0  0  0.231408  0.58305  0  4.276596  0
C  C48  1  0.41922112  0.85039741  0.27732110  1  0  0.08133  0  3.662577  0  0  0.073019  0  3.928168  0  0  0.075222  0  3.940377  0  0  0.078073  0.070931  0  3.920645  0
C  C49  1  0.58078440  0.14960528  0.72267382  1  0  0.081471  0  3.662643  0  0  0.073105  0  3.928265  0  0  0.075306  0  3.940472  0  0  0.078158  0.071021  0  3.92074  0
C  C50  1  0.37787033  0.86505670  0.16264946  1  0  -0.133781  0  3.679258  0  0  -0.164262  0  3.941173  0  0  -0.164637  0  3.955838  0  0  -0.091156  -0.164217  0  3.9318  0
C  C51  1  0.62213877  0.13494301  0.83734584  1  0  -0.13378  0  3.679291  0  0  -0.164234  0  3.941225  0  0  -0.164611  0  3.955897  0  0  -0.091199  -0.164193  0  3.931862  0
C  C52  1  0.37373636  0.00326522  0.10523732  1  0  -0.144958  0  3.730435  0  0  -0.173055  0  3.992235  0  0  -0.175276  0  4.010221  0  0  -0.097274  -0.171297  0  3.980257  0
C  C53  1  0.62627799  0.99673451  0.89475753  1  0  -0.144884  0  3.730385  0  0  -0.172998  0  3.992199  0  0  -0.175218  0  4.010187  0  0  -0.097293  -0.171244  0  3.980232  0
C  C54  1  0.41369456  0.06513745  0.18725660  1  0  0.087186  0  3.668406  0  0  0.07729  0  3.93483  0  0  0.079787  0  3.948093  0  0  0.075606  0.075294  0  3.925861  0
C  C55  1  0.58631767  0.93486227  0.81273931  1  0  0.087066  0  3.668306  0  0  0.077132  0  3.934767  0  0  0.079632  0  3.948027  0  0  0.075558  0.075141  0  3.92579  0
C  C56  1  0.43788503  0.20074230  0.19051766  1  0  0.643981  0  3.997563  0  0  0.592071  0  4.300333  0  0  0.627342  0  4.288749  0  0  0.229025  0.568315  0  4.30715  0
C  C57  1  0.56211747  0.79925939  0.80947862  1  0  0.644128  0  3.997618  0  0  0.592181  0  4.300445  0  0  0.627452  0  4.288865  0  0  0.228997  0.568427  0  4.307262  0
C  C58  1  0.15477452  0.10306697  0.58612105  1  0  0.604898  0  3.760117  0  0  0.563002  0  4.04555  0  0  0.59329  0  4.044527  0  0  0.260165  0.542232  0  4.04577  0
C  C59  1  0.84523025  0.89693278  0.41388335  1  0  0.604946  0  3.760024  0  0  0.562786  0  4.045883  0  0  0.593053  0  4.044895  0  0  0.260032  0.542011  0  4.046108  0
C  C60  1  0.14625210  0.10817865  0.71738532  1  0  -0.438312  0  3.679687  0  0  -0.515521  0  3.911177  0  0  -0.521731  0  3.914279  0  0  -0.231915  -0.511019  0  3.909079  0
C  C61  1  0.85374669  0.89182607  0.28261932  1  0  -0.438379  0  3.679698  0  0  -0.515504  0  3.911275  0  0  -0.521705  0  3.914381  0  0  -0.231927  -0.511006  0  3.909177  0
C  C62  1  0.06018656  0.17362953  0.38846748  1  0  -0.166206  0  3.640931  0  0  -0.266791  0  3.888596  0  0  -0.263004  0  3.898282  0  0  -0.130758  -0.268949  0  3.881751  0
C  C63  1  0.93981856  0.82636820  0.61153298  1  0  -0.166424  0  3.64122  0  0  -0.266984  0  3.888901  0  0  -0.263193  0  3.898574  0  0  -0.130795  -0.26914  0  3.882058  0
C  C64  1  0.92859841  0.25067149  0.56502721  1  0  -0.172093  0  3.641341  0  0  -0.270454  0  3.887577  0  0  -0.26728  0  3.898438  0  0  -0.13291  -0.272451  0  3.88018  0
C  C65  1  0.07139960  0.74932424  0.43497693  1  0  -0.172141  0  3.64119  0  0  -0.270466  0  3.887467  0  0  -0.267292  0  3.898327  0  0  -0.132957  -0.272468  0  3.880078  0
N  N66  1  0.04825093  0.16766332  0.51826468  1  0  -0.135434  0  3.41381  0  0  -0.035529  0  3.644608  0  0  -0.056669  0  3.66812  0  0  -0.272702  -0.021182  0  3.628106  0
N  N67  1  0.95175128  0.83233243  0.48173911  1  0  -0.135131  0  3.413641  0  0  -0.035183  0  3.64453  0  0  -0.056313  0  3.668052  0  0  -0.272596  -0.020835  0  3.628024  0
O  O68  1  0.29329703  0.60733267  0.07854606  1  0  -0.701015  0  1.958636  0  0  -0.646371  0  2.201185  0  0  -0.672656  0  2.189717  0  0  -0.373961  -0.626289  0  2.209346  0
O  O69  1  0.70669624  0.39266701  0.92145495  1  0  -0.701052  0  1.958641  0  0  -0.646402  0  2.201154  0  0  -0.672694  0  2.189683  0  0  -0.373968  -0.626311  0  2.209293  0
O  O70  1  0.23741243  0.40698590  0.50811781  1  0  -0.856527  0  1.783787  0  0  -0.803621  0  1.955396  0  0  -0.824531  0  1.926426  0  0  -0.60859  -0.788551  0  1.975673  0
O  O71  1  0.76258729  0.59301281  0.49188288  1  0  -0.856516  0  1.783735  0  0  -0.803601  0  1.955346  0  0  -0.824529  0  1.926369  0  0  -0.608553  -0.788528  0  1.975622  0
O  O72  1  0.23729016  0.48233470  0.26554554  1  0  -0.696092  0  2.000893  0  0  -0.643358  0  2.248005  0  0  -0.668617  0  2.234905  0  0  -0.352846  -0.625537  0  2.256943  0
O  O73  1  0.76270164  0.51766796  0.73445490  1  0  -0.696074  0  2.000791  0  0  -0.643349  0  2.24793  0  0  -0.668635  0  2.23482  0  0  -0.352843  -0.625537  0  2.256871  0
O  O74  1  0.95809431  0.52247463  0.21826498  1  0  -0.180929  0  2.410976  0  0  -0.118525  0  2.63453  0  0  -0.132357  0  2.640936  0  0  -0.112087  -0.108979  0  2.630171  0
O  O75  1  0.04189866  0.47752705  0.78173734  1  0  -0.180894  0  2.411136  0  0  -0.118274  0  2.634639  0  0  -0.132121  0  2.641031  0  0  -0.111988  -0.108737  0  2.630274  0
O  O76  1  0.71366254  0.43662010  0.34670031  1  0  -0.659451  0  1.989414  0  0  -0.605524  0  2.216816  0  0  -0.629758  0  2.20541  0  0  -0.328023  -0.588882  0  2.224376  0
O  O77  1  0.28633208  0.56337759  0.65330017  1  0  -0.659438  0  1.9895  0  0  -0.6055  0  2.216881  0  0  -0.629745  0  2.205475  0  0  -0.328024  -0.588863  0  2.224435  0
O  O78  1  0.60011204  0.49834840  0.17700760  1  0  -0.737165  0  2.012783  0  0  -0.673855  0  2.266517  0  0  -0.702844  0  2.254748  0  0  -0.394877  -0.653446  0  2.275659  0
O  O79  1  0.39988137  0.50165029  0.82299449  1  0  -0.737186  0  2.013028  0  0  -0.673865  0  2.266726  0  0  -0.702877  0  2.254968  0  0  -0.394884  -0.653455  0  2.275867  0
O  O80  1  0.47754493  0.78067110  0.47770244  1  0  -0.735008  0  2.034707  0  0  -0.672118  0  2.287777  0  0  -0.700897  0  2.27643  0  0  -0.397659  -0.651368  0  2.294901  0
O  O81  1  0.52245443  0.21933057  0.52229322  1  0  -0.735061  0  2.034551  0  0  -0.672163  0  2.28762  0  0  -0.700928  0  2.276262  0  0  -0.397676  -0.651409  0  2.294744  0
O  O82  1  0.43833526  0.62419115  0.38574589  1  0  -0.680296  0  2.011455  0  0  -0.624177  0  2.260221  0  0  -0.651636  0  2.250146  0  0  -0.356942  -0.605345  0  2.267104  0
O  O83  1  0.56166526  0.37580954  0.61425253  1  0  -0.680327  0  2.011483  0  0  -0.624171  0  2.260241  0  0  -0.65165  0  2.250141  0  0  -0.356938  -0.605343  0  2.267134  0
O  O84  1  0.44051987  0.97210185  0.29260750  1  0  -0.251149  0  2.557631  0  0  -0.171885  0  2.780682  0  0  -0.189757  0  2.789623  0  0  -0.129887  -0.159597  0  2.774668  0
O  O85  1  0.55948687  0.02789984  0.70738579  1  0  -0.25131  0  2.557664  0  0  -0.17195  0  2.780688  0  0  -0.189831  0  2.789633  0  0  -0.129884  -0.159661  0  2.774667  0
O  O86  1  0.46743412  0.21316365  0.29308148  1  0  -0.700483  0  1.973722  0  0  -0.64611  0  2.220674  0  0  -0.67236  0  2.208243  0  0  -0.351953  -0.627835  0  2.228307  0
O  O87  1  0.53256506  0.78683903  0.70691660  1  0  -0.700518  0  1.973732  0  0  -0.646108  0  2.220702  0  0  -0.67238  0  2.208265  0  0  -0.351932  -0.627839  0  2.228342  0
O  O88  1  0.42835669  0.29046570  0.09358852  1  0  -0.672125  0  1.977826  0  0  -0.613407  0  2.216844  0  0  -0.640014  0  2.205464  0  0  -0.350093  -0.594203  0  2.223798  0
O  O89  1  0.57163920  0.70953796  0.90640960  1  0  -0.672159  0  1.97795  0  0  -0.613441  0  2.216991  0  0  -0.640048  0  2.205608  0  0  -0.350073  -0.594235  0  2.223946  0
O  O90  1  0.26184631  0.03940930  0.54167518  1  0  -0.683302  0  1.966366  0  0  -0.632132  0  2.22106  0  0  -0.657605  0  2.209584  0  0  -0.380277  -0.613727  0  2.228619  0
O  O91  1  0.73815744  0.96059044  0.45832756  1  0  -0.683381  0  1.966232  0  0  -0.632088  0  2.221018  0  0  -0.657555  0  2.209554  0  0  -0.380243  -0.61368  0  2.228577  0
