# generated using pymatgen
data_LaH15(C8O3)3
_symmetry_space_group_name_H-M   'P 1'
_cell_length_a   7.82914901
_cell_length_b   9.44942644
_cell_length_c   13.74211624
_cell_angle_alpha   79.38566629
_cell_angle_beta   89.38147258
_cell_angle_gamma   84.78981045
_symmetry_Int_Tables_number   1
_chemical_formula_structural   LaH15(C8O3)3
_chemical_formula_sum   'La2 H30 C48 O18'
_cell_volume   995.11242931
_cell_formula_units_Z   2
loop_
 _symmetry_equiv_pos_site_id
 _symmetry_equiv_pos_as_xyz
  1  'x, y, z'
loop_
 _atom_site_type_symbol
 _atom_site_label
 _atom_site_symmetry_multiplicity
 _atom_site_fract_x
 _atom_site_fract_y
 _atom_site_fract_z
 _atom_site_occupancy
 _atom_site_hle17_bader_spin_density
 _atom_site_hle17_ddec_charge
 _atom_site_hle17_ddec_spin_density
 _atom_site_hle17_ddec_sum_bond_order
 _atom_site_hle17_magmom
 _atom_site_hse06_10hf_bader_spin_density
 _atom_site_hse06_10hf_ddec_charge
 _atom_site_hse06_10hf_ddec_spin_density
 _atom_site_hse06_10hf_ddec_sum_bond_order
 _atom_site_hse06_10hf_magmom
 _atom_site_hse06_bader_spin_density
 _atom_site_hse06_ddec_charge
 _atom_site_hse06_ddec_spin_density
 _atom_site_hse06_ddec_sum_bond_order
 _atom_site_hse06_magmom
 _atom_site_pbe_bader_spin_density
 _atom_site_pbe_cm5_charge
 _atom_site_pbe_ddec_charge
 _atom_site_pbe_ddec_spin_density
 _atom_site_pbe_ddec_sum_bond_order
 _atom_site_pbe_magmom
La  La0  1  0.25819236  0.96915534  0.55170053  1  0  2.09453  0  1.783915  0  0  1.975077  0  2.290487  0  0  2.076218  0  2.196826  0  0  1.410348  1.899312  0  2.355195  0
La  La1  1  0.74180711  0.03084578  0.44830196  1  0  2.09448  0  1.784037  0  0  1.975016  0  2.290613  0  0  2.076163  0  2.196947  0  0  1.410335  1.899256  0  2.35531  0
H  H2  1  0.16362170  0.04275404  0.77524424  1  0  0.409863  0  0.839872  0  0  0.378263  0  0.920969  0  0  0.389538  0  0.907981  0  0  0.329556  0.370203  0  0.930337  0
H  H3  1  0.83637960  0.95725250  0.22475906  1  0  0.409884  0  0.839838  0  0  0.378223  0  0.921038  0  0  0.3895  0  0.908049  0  0  0.329539  0.370159  0  0.930412  0
H  H4  1  0.95121094  0.89325384  0.68871602  1  0  0.429278  0  0.869284  0  0  0.398095  0  0.934871  0  0  0.409358  0  0.918664  0  0  0.301195  0.389976  0  0.946519  0
H  H5  1  0.04878585  0.10674834  0.31128490  1  0  0.429215  0  0.869352  0  0  0.398017  0  0.934971  0  0  0.409279  0  0.918766  0  0  0.301133  0.389898  0  0.946619  0
H  H6  1  0.11636765  0.82354138  0.75985268  1  0  0.429699  0  0.871393  0  0  0.399769  0  0.933058  0  0  0.41174  0  0.91568  0  0  0.29841  0.391233  0  0.945413  0
H  H7  1  0.88362855  0.17646502  0.24015284  1  0  0.429708  0  0.871375  0  0  0.399758  0  0.93308  0  0  0.411732  0  0.915699  0  0  0.298386  0.391214  0  0.945448  0
H  H8  1  0.17114715  0.16363963  0.16154433  1  0  0.088825  0  0.978763  0  0  0.099928  0  1.042505  0  0  0.102497  0  1.0421  0  0  0.102092  0.098204  0  1.042677  0
H  H9  1  0.82885488  0.83635166  0.83846511  1  0  0.088808  0  0.978719  0  0  0.099924  0  1.042468  0  0  0.102525  0  1.042033  0  0  0.102107  0.098178  0  1.04266  0
H  H10  1  0.84791949  0.37419986  0.43560024  1  0  0.111872  0  0.952405  0  0  0.120676  0  1.013792  0  0  0.124311  0  1.011418  0  0  0.1162  0.118029  0  1.015628  0
H  H11  1  0.15208736  0.62580367  0.56439683  1  0  0.111902  0  0.952455  0  0  0.120711  0  1.013815  0  0  0.124345  0  1.01144  0  0  0.116236  0.118058  0  1.015651  0
H  H12  1  0.69430140  0.54222648  0.24211319  1  0  0.09861  0  0.937663  0  0  0.112345  0  0.99072  0  0  0.115169  0  0.989763  0  0  0.105843  0.110094  0  0.991889  0
H  H13  1  0.30569742  0.45776082  0.75787781  1  0  0.098599  0  0.937637  0  0  0.112327  0  0.990686  0  0  0.115167  0  0.989708  0  0  0.10581  0.110072  0  0.991849  0
H  H14  1  0.64876995  0.59505183  0.42584282  1  0  0.107047  0  0.94598  0  0  0.118133  0  1.006345  0  0  0.121319  0  1.004908  0  0  0.110726  0.115809  0  1.007573  0
H  H15  1  0.35123759  0.40495603  0.57415448  1  0  0.10708  0  0.945971  0  0  0.118171  0  1.006332  0  0  0.121357  0  1.004894  0  0  0.110745  0.115815  0  1.007595  0
H  H16  1  0.98620054  0.37442793  0.92174649  1  0  0.084106  0  0.943629  0  0  0.09847  0  0.998526  0  0  0.101052  0  0.997545  0  0  0.09991  0.096534  0  0.999403  0
H  H17  1  0.01379285  0.62557095  0.07825410  1  0  0.084136  0  0.943625  0  0  0.09854  0  0.998481  0  0  0.101125  0  0.997496  0  0  0.09991  0.096605  0  0.999355  0
H  H18  1  0.11303886  0.12881813  0.99163298  1  0  0.099024  0  0.953625  0  0  0.109859  0  1.015046  0  0  0.112458  0  1.014118  0  0  0.106709  0.107888  0  1.015894  0
H  H19  1  0.88696032  0.87118507  0.00837290  1  0  0.099017  0  0.953644  0  0  0.109871  0  1.015038  0  0  0.112455  0  1.014129  0  0  0.106691  0.107901  0  1.015886  0
H  H20  1  0.04745209  0.26433465  0.77545236  1  0  0.107828  0  1.007144  0  0  0.114494  0  1.073604  0  0  0.118277  0  1.07135  0  0  0.101663  0.111825  0  1.075215  0
H  H21  1  0.95254498  0.73566541  0.22454735  1  0  0.107854  0  1.007089  0  0  0.114513  0  1.073552  0  0  0.118298  0  1.071295  0  0  0.101664  0.111846  0  1.075164  0
H  H22  1  0.61840142  0.69034557  0.75539488  1  0  0.102892  0  0.958775  0  0  0.113494  0  1.018469  0  0  0.116507  0  1.017288  0  0  0.105873  0.11123  0  1.019642  0
H  H23  1  0.38159496  0.30965010  0.24460680  1  0  0.102859  0  0.958719  0  0  0.113464  0  1.01844  0  0  0.116466  0  1.017274  0  0  0.10584  0.111202  0  1.019617  0
H  H24  1  0.55555079  0.75590886  0.30205723  1  0  0.100955  0  0.96658  0  0  0.109436  0  1.032034  0  0  0.11273  0  1.029858  0  0  0.106751  0.106989  0  1.033814  0
H  H25  1  0.44446176  0.24408078  0.69793707  1  0  0.100921  0  0.966478  0  0  0.109399  0  1.031963  0  0  0.112692  0  1.029789  0  0  0.106756  0.106962  0  1.033728  0
H  H26  1  0.77152962  0.58853680  0.91258240  1  0  0.082033  0  0.967353  0  0  0.094359  0  1.028206  0  0  0.096441  0  1.027973  0  0  0.099184  0.092825  0  1.028451  0
H  H27  1  0.22846392  0.41146101  0.08741832  1  0  0.082032  0  0.967357  0  0  0.094358  0  1.028196  0  0  0.096439  0  1.027965  0  0  0.099201  0.092825  0  1.028442  0
H  H28  1  0.45894607  0.69253933  0.95571114  1  0  0.09719  0  0.977839  0  0  0.105984  0  1.042203  0  0  0.108889  0  1.041256  0  0  0.099876  0.103742  0  1.043181  0
H  H29  1  0.54104152  0.30746499  0.04428302  1  0  0.097142  0  0.977985  0  0  0.105965  0  1.04232  0  0  0.108889  0  1.041345  0  0  0.099883  0.103725  0  1.043309  0
H  H30  1  0.65457860  0.51612969  0.06754633  1  0  0.088199  0  0.959591  0  0  0.099963  0  1.01989  0  0  0.102735  0  1.018435  0  0  0.101347  0.09797  0  1.020973  0
H  H31  1  0.34540775  0.48386498  0.93244314  1  0  0.08833  0  0.959458  0  0  0.099994  0  1.019838  0  0  0.102811  0  1.018329  0  0  0.101371  0.097998  0  1.020919  0
C  C32  1  0.01074869  0.21659638  0.58665694  1  0  0.671477  0  3.859852  0  0  0.623571  0  4.154929  0  0  0.659783  0  4.148539  0  0  0.219479  0.598966  0  4.157817  0
C  C33  1  0.98925433  0.78340707  0.41334089  1  0  0.67155  0  3.859725  0  0  0.623654  0  4.154779  0  0  0.659864  0  4.148383  0  0  0.219522  0.599025  0  4.157726  0
C  C34  1  0.89773780  0.35069824  0.59096288  1  0  -0.111927  0  3.710944  0  0  -0.096285  0  3.949322  0  0  -0.104905  0  3.970911  0  0  -0.010545  -0.090663  0  3.934712  0
C  C35  1  0.10226154  0.64930406  0.40903510  1  0  -0.11193  0  3.710945  0  0  -0.096306  0  3.949331  0  0  -0.104909  0  3.970898  0  0  -0.010502  -0.090728  0  3.934775  0
C  C36  1  0.66733634  0.60048904  0.58070690  1  0  -0.07537  0  3.702256  0  0  -0.061713  0  3.940176  0  0  -0.065511  0  3.958174  0  0  0.000357  -0.059296  0  3.928119  0
C  C37  1  0.33266682  0.39951329  0.41929251  1  0  -0.075584  0  3.702435  0  0  -0.061886  0  3.940332  0  0  -0.065684  0  3.95833  0  0  0.000338  -0.059465  0  3.928259  0
C  C38  1  0.86958718  0.41275091  0.67836357  1  0  0.058892  0  3.719252  0  0  0.068742  0  3.944985  0  0  0.069856  0  3.969501  0  0  0.003484  0.068012  0  3.928252  0
C  C39  1  0.13041089  0.58725137  0.32163370  1  0  0.058984  0  3.719273  0  0  0.06883  0  3.944991  0  0  0.069942  0  3.969503  0  0  0.003527  0.068124  0  3.928256  0
C  C40  1  0.38288373  0.00240955  0.29777756  1  0  0.702755  0  3.849904  0  0  0.653403  0  4.151678  0  0  0.690147  0  4.140784  0  0  0.23781  0.628031  0  4.15865  0
C  C41  1  0.61712214  0.99758196  0.70222529  1  0  0.702725  0  3.850116  0  0  0.653424  0  4.151814  0  0  0.690167  0  4.140917  0  0  0.237931  0.628052  0  4.158779  0
C  C42  1  0.34167978  0.96995909  0.19790285  1  0  -0.070832  0  3.682051  0  0  -0.058722  0  3.919711  0  0  -0.061695  0  3.936759  0  0  -0.003418  -0.057002  0  3.90859  0
C  C43  1  0.65833118  0.03003250  0.80209996  1  0  -0.070739  0  3.682008  0  0  -0.058634  0  3.919674  0  0  -0.061604  0  3.936724  0  0  -0.003426  -0.056911  0  3.908533  0
C  C44  1  0.53157986  0.72358211  0.57180089  1  0  0.672185  0  3.879117  0  0  0.624974  0  4.175827  0  0  0.660619  0  4.168713  0  0  0.221435  0.600583  0  4.179493  0
C  C45  1  0.46841976  0.27641790  0.42820318  1  0  0.672486  0  3.878921  0  0  0.625191  0  4.175737  0  0  0.660835  0  4.168618  0  0  0.221434  0.600778  0  4.179436  0
C  C46  1  0.38970151  0.82591456  0.06498228  1  0  0.058311  0  3.732523  0  0  0.067818  0  3.957325  0  0  0.068778  0  3.983262  0  0  0.002726  0.067369  0  3.939608  0
C  C47  1  0.61030038  0.17408776  0.93501642  1  0  0.058396  0  3.732385  0  0  0.067861  0  3.957304  0  0  0.06882  0  3.983239  0  0  0.002816  0.067403  0  3.939614  0
C  C48  1  0.74807052  0.53803565  0.67314640  1  0  0.045742  0  3.739098  0  0  0.05549  0  3.96561  0  0  0.054823  0  3.990222  0  0  0.002445  0.056022  0  3.948897  0
C  C49  1  0.25193038  0.46196451  0.32685182  1  0  0.045677  0  3.739116  0  0  0.05545  0  3.965588  0  0  0.054784  0  3.990197  0  0  0.002394  0.055987  0  3.948863  0
C  C50  1  0.23092418  0.06831778  0.13620670  1  0  -0.096324  0  3.768871  0  0  -0.121127  0  4.026201  0  0  -0.123727  0  4.046256  0  0  -0.094107  -0.119538  0  4.012698  0
C  C51  1  0.76907884  0.93167577  0.86379884  1  0  -0.096297  0  3.768628  0  0  -0.121126  0  4.025957  0  0  -0.123758  0  4.045991  0  0  -0.094117  -0.119522  0  4.012466  0
C  C52  1  0.81981497  0.41856886  0.50221606  1  0  -0.058015  0  3.74229  0  0  -0.088102  0  4.004245  0  0  -0.086926  0  4.023766  0  0  -0.075079  -0.088708  0  3.991042  0
C  C53  1  0.18018378  0.58143771  0.49778361  1  0  -0.058042  0  3.742142  0  0  -0.088096  0  4.004063  0  0  -0.086922  0  4.023576  0  0  -0.075104  -0.08866  0  3.990833  0
C  C54  1  0.27430402  0.93072855  0.00367298  1  0  -0.118075  0  3.724073  0  0  -0.102616  0  3.96435  0  0  -0.111531  0  3.986947  0  0  -0.012391  -0.096871  0  3.948999  0
C  C55  1  0.72569516  0.06927466  0.99633218  1  0  -0.117955  0  3.724088  0  0  -0.10254  0  3.964479  0  0  -0.111443  0  3.987048  0  0  -0.01249  -0.096801  0  3.949141  0
C  C56  1  0.61179950  0.62326794  0.19306966  1  0  -0.044838  0  3.743893  0  0  -0.060856  0  3.999188  0  0  -0.062608  0  4.019772  0  0  -0.08286  -0.059564  0  3.985292  0
C  C57  1  0.38820031  0.37672152  0.80692254  1  0  -0.044839  0  3.744052  0  0  -0.060826  0  3.999277  0  0  -0.062594  0  4.019877  0  0  -0.082813  -0.059533  0  3.985362  0
C  C58  1  0.42194863  0.84578805  0.16439697  1  0  0.04765  0  3.727767  0  0  0.057921  0  3.954012  0  0  0.05713  0  3.978302  0  0  0.002279  0.058322  0  3.937733  0
C  C59  1  0.57806049  0.15420791  0.83560243  1  0  0.04766  0  3.727804  0  0  0.057886  0  3.95415  0  0  0.057095  0  3.978436  0  0  0.002312  0.058291  0  3.937869  0
C  C60  1  0.70776581  0.54415807  0.49643704  1  0  -0.072799  0  3.738093  0  0  -0.099875  0  4.000263  0  0  -0.101838  0  4.019551  0  0  -0.081792  -0.09865  0  3.987408  0
C  C61  1  0.29223607  0.45584428  0.50356092  1  0  -0.072783  0  3.738059  0  0  -0.099892  0  4.000217  0  0  -0.101856  0  4.019509  0  0  -0.081791  -0.098633  0  3.987334  0
C  C62  1  0.91940276  0.41956615  0.85214354  1  0  -0.046437  0  3.765456  0  0  -0.061546  0  4.017183  0  0  -0.063002  0  4.03866  0  0  -0.084447  -0.060259  0  4.002095  0
C  C63  1  0.08059206  0.58043169  0.14785644  1  0  -0.046583  0  3.765445  0  0  -0.061733  0  4.017175  0  0  -0.063192  0  4.038658  0  0  -0.084518  -0.060449  0  4.002095  0
C  C64  1  0.19903871  0.04950052  0.03952702  1  0  -0.05174  0  3.750075  0  0  -0.083422  0  4.013389  0  0  -0.081784  0  4.033026  0  0  -0.085088  -0.084078  0  3.999905  0
C  C65  1  0.80096076  0.95050053  0.96047911  1  0  -0.051837  0  3.749918  0  0  -0.083514  0  4.013243  0  0  -0.081867  0  4.032891  0  0  -0.085058  -0.084174  0  3.999758  0
C  C66  1  0.95316558  0.35655497  0.77028991  1  0  -0.117225  0  3.722568  0  0  -0.140727  0  3.976259  0  0  -0.144228  0  3.997309  0  0  -0.093665  -0.137979  0  3.961508  0
C  C67  1  0.04683149  0.64344504  0.22971199  1  0  -0.11721  0  3.72252  0  0  -0.140706  0  3.976215  0  0  -0.144208  0  3.997268  0  0  -0.093626  -0.137972  0  3.961477  0
C  C68  1  0.71469828  0.59877945  0.75924757  1  0  -0.106874  0  3.731127  0  0  -0.12881  0  3.983337  0  0  -0.131246  0  4.004067  0  0  -0.08784  -0.127404  0  3.969474  0
C  C69  1  0.28529723  0.40122274  0.24075190  1  0  -0.106688  0  3.730972  0  0  -0.128649  0  3.983175  0  0  -0.131078  0  4.003911  0  0  -0.087775  -0.127246  0  3.969322  0
C  C70  1  0.53184985  0.74046002  0.22698539  1  0  -0.094401  0  3.706544  0  0  -0.12063  0  3.966815  0  0  -0.12202  0  3.98598  0  0  -0.086008  -0.119602  0  3.953935  0
C  C71  1  0.46815716  0.25953272  0.77301149  1  0  -0.094383  0  3.706634  0  0  -0.120598  0  3.966905  0  0  -0.12199  0  3.986076  0  0  -0.086013  -0.119579  0  3.954012  0
C  C72  1  0.22560617  0.91755185  0.90185217  1  0  0.668905  0  3.777495  0  0  0.613702  0  4.080412  0  0  0.64772  0  4.070554  0  0  0.244127  0.590587  0  4.086636  0
C  C73  1  0.77438682  0.08244059  0.09814627  1  0  0.668672  0  3.777199  0  0  0.613464  0  4.080101  0  0  0.647483  0  4.070251  0  0  0.244046  0.590367  0  4.086306  0
C  C74  1  0.79910365  0.54109002  0.84696837  1  0  -0.066524  0  3.789614  0  0  -0.079926  0  4.039221  0  0  -0.081715  0  4.061136  0  0  -0.091151  -0.078531  0  4.02397  0
C  C75  1  0.20089131  0.45890675  0.15303174  1  0  -0.066561  0  3.789598  0  0  -0.079949  0  4.039205  0  0  -0.081737  0  4.061117  0  0  -0.091161  -0.078553  0  4.02396  0
C  C76  1  0.47908366  0.70637195  0.03147147  1  0  -0.127014  0  3.750221  0  0  -0.149006  0  4.005332  0  0  -0.153545  0  4.028496  0  0  -0.095155  -0.146032  0  3.989369  0
C  C77  1  0.52090961  0.29362820  0.96852025  1  0  -0.127008  0  3.750471  0  0  -0.148998  0  4.005532  0  0  -0.153551  0  4.028701  0  0  -0.095169  -0.146043  0  3.989598  0
C  C78  1  0.58788060  0.60811218  0.09394902  1  0  -0.064155  0  3.76941  0  0  -0.080084  0  4.023537  0  0  -0.081363  0  4.045404  0  0  -0.089507  -0.078808  0  4.008276  0
C  C79  1  0.41211084  0.39188251  0.90604406  1  0  -0.064249  0  3.769411  0  0  -0.080097  0  4.023542  0  0  -0.081414  0  4.045406  0  0  -0.089543  -0.078805  0  4.00827  0
O  O80  1  0.18857547  0.04752222  0.84490091  1  0  -0.53867  0  2.166521  0  0  -0.483094  0  2.39288  0  0  -0.504893  0  2.380587  0  0  -0.314376  -0.468035  0  2.40129  0
O  O81  1  0.81142554  0.95248648  0.15510213  1  0  -0.538652  0  2.166571  0  0  -0.483022  0  2.392981  0  0  -0.504818  0  2.380688  0  0  -0.314348  -0.467968  0  2.401392  0
O  O82  1  0.25886558  0.02032635  0.35735272  1  0  -0.704793  0  1.981579  0  0  -0.650618  0  2.226581  0  0  -0.683643  0  2.218087  0  0  -0.344532  -0.627052  0  2.231613  0
O  O83  1  0.74114073  0.97966191  0.64265050  1  0  -0.704825  0  1.981738  0  0  -0.650669  0  2.226695  0  0  -0.683698  0  2.218206  0  0  -0.344594  -0.627082  0  2.23167  0
O  O84  1  0.54600562  0.83539497  0.50249221  1  0  -0.770446  0  2.071892  0  0  -0.722464  0  2.342603  0  0  -0.761508  0  2.336656  0  0  -0.424141  -0.693738  0  2.344923  0
O  O85  1  0.45399597  0.16460947  0.49750842  1  0  -0.770568  0  2.072021  0  0  -0.722575  0  2.342787  0  0  -0.761617  0  2.336837  0  0  -0.424143  -0.693832  0  2.345103  0
O  O86  1  0.53869416  0.01393642  0.31549064  1  0  -0.664037  0  2.031711  0  0  -0.617782  0  2.290366  0  0  -0.650632  0  2.28218  0  0  -0.367166  -0.594246  0  2.295165  0
O  O87  1  0.46131354  0.98606050  0.68451303  1  0  -0.664087  0  2.031939  0  0  -0.617824  0  2.290492  0  0  -0.650673  0  2.282302  0  0  -0.367244  -0.594292  0  2.295285  0
O  O88  1  0.98383033  0.14744732  0.51560199  1  0  -0.757491  0  2.050241  0  0  -0.704931  0  2.315634  0  0  -0.744023  0  2.310515  0  0  -0.423886  -0.676133  0  2.317208  0
O  O89  1  0.01616900  0.85255490  0.48439964  1  0  -0.757465  0  2.05004  0  0  -0.704975  0  2.315558  0  0  -0.744085  0  2.310477  0  0  -0.423893  -0.676168  0  2.31715  0
O  O90  1  0.40200394  0.71611534  0.62715281  1  0  -0.611053  0  1.951987  0  0  -0.565717  0  2.183758  0  0  -0.595238  0  2.176834  0  0  -0.333042  -0.544651  0  2.187819  0
O  O91  1  0.59800063  0.28388593  0.37284672  1  0  -0.611166  0  1.9518  0  0  -0.565764  0  2.183571  0  0  -0.595285  0  2.176641  0  0  -0.333029  -0.544693  0  2.187647  0
O  O92  1  0.13434672  0.17029383  0.64652602  1  0  -0.650343  0  2.018342  0  0  -0.598805  0  2.261518  0  0  -0.627371  0  2.252493  0  0  -0.340068  -0.5785  0  2.266936  0
O  O93  1  0.86566279  0.82971844  0.35346929  1  0  -0.650442  0  2.018435  0  0  -0.598881  0  2.261624  0  0  -0.627452  0  2.252606  0  0  -0.340131  -0.578554  0  2.267056  0
O  O94  1  0.07385600  0.85655127  0.69032570  1  0  -0.886056  0  1.867474  0  0  -0.836978  0  2.057263  0  0  -0.862542  0  2.02228  0  0  -0.634819  -0.818334  0  2.08151  0
O  O95  1  0.92614374  0.14345742  0.30967663  1  0  -0.886017  0  1.867491  0  0  -0.836949  0  2.057337  0  0  -0.862513  0  2.022351  0  0  -0.634767  -0.818293  0  2.081588  0
O  O96  1  0.21417228  0.80203790  0.87271970  1  0  -0.552327  0  1.939485  0  0  -0.499991  0  2.143786  0  0  -0.520461  0  2.133312  0  0  -0.274723  -0.485957  0  2.150847  0
O  O97  1  0.78581709  0.19798129  0.12728800  1  0  -0.552305  0  1.938602  0  0  -0.499939  0  2.142872  0  0  -0.520426  0  2.132423  0  0  -0.274697  -0.485909  0  2.149937  0
