# generated using pymatgen
data_Cu4H24WC30S7(IN3)2
_symmetry_space_group_name_H-M   'P 1'
_cell_length_a   12.39263287
_cell_length_b   14.32377014
_cell_length_c   15.03202585
_cell_angle_alpha   118.43695649
_cell_angle_beta   90.00036354
_cell_angle_gamma   89.99980195
_symmetry_Int_Tables_number   1
_chemical_formula_structural   Cu4H24WC30S7(IN3)2
_chemical_formula_sum   'Cu8 H48 W2 C60 S14 I4 N12'
_cell_volume   2346.36765707
_cell_formula_units_Z   2
loop_
 _symmetry_equiv_pos_site_id
 _symmetry_equiv_pos_as_xyz
  1  'x, y, z'
loop_
 _atom_site_type_symbol
 _atom_site_label
 _atom_site_symmetry_multiplicity
 _atom_site_fract_x
 _atom_site_fract_y
 _atom_site_fract_z
 _atom_site_occupancy
 _atom_site_hle17_bader_spin_density
 _atom_site_hle17_ddec_charge
 _atom_site_hle17_ddec_spin_density
 _atom_site_hle17_ddec_sum_bond_order
 _atom_site_hle17_magmom
 _atom_site_hse06_10hf_bader_spin_density
 _atom_site_hse06_10hf_ddec_charge
 _atom_site_hse06_10hf_ddec_spin_density
 _atom_site_hse06_10hf_ddec_sum_bond_order
 _atom_site_hse06_10hf_magmom
 _atom_site_hse06_bader_spin_density
 _atom_site_hse06_ddec_charge
 _atom_site_hse06_ddec_spin_density
 _atom_site_hse06_ddec_sum_bond_order
 _atom_site_hse06_magmom
 _atom_site_pbe_bader_spin_density
 _atom_site_pbe_cm5_charge
 _atom_site_pbe_ddec_charge
 _atom_site_pbe_ddec_spin_density
 _atom_site_pbe_ddec_sum_bond_order
 _atom_site_pbe_magmom
Cu  Cu0  1  0.16636118  0.19492719  0.16404372  1  0  0.346911  0  2.36418  0  0  0.283957  0  2.855164  0  0  0.276402  0  2.824908  0  0  0.33507  0.291695  0  2.873221  0
Cu  Cu1  1  0.66655363  0.96895556  0.16398846  1  0  0.346635  0  2.364773  0  0  0.283355  0  2.856194  0  0  0.275671  0  2.826133  0  0  0.335067  0.291142  0  2.874095  0
Cu  Cu2  1  0.66655799  0.03104765  0.83601105  1  0  0.346652  0  2.364658  0  0  0.283358  0  2.856083  0  0  0.275726  0  2.826037  0  0  0.335091  0.291165  0  2.873991  0
Cu  Cu3  1  0.16636254  0.80507235  0.83596079  1  0  0.346945  0  2.364171  0  0  0.283996  0  2.855167  0  0  0.276457  0  2.824911  0  0  0.335095  0.291736  0  2.873225  0
Cu  Cu4  1  0.17296156  0.08189432  0.87471162  1  0  0.386349  0  2.283942  0  0  0.301976  0  2.781161  0  0  0.290385  0  2.752361  0  0  0.464216  0.313464  0  2.79775  0
Cu  Cu5  1  0.67298387  0.79286204  0.87473369  1  0  0.386654  0  2.283973  0  0  0.302091  0  2.781414  0  0  0.290536  0  2.752696  0  0  0.464284  0.313504  0  2.798025  0
Cu  Cu6  1  0.67299427  0.20714118  0.12526918  1  0  0.386622  0  2.283937  0  0  0.302025  0  2.781364  0  0  0.290467  0  2.752654  0  0  0.464291  0.313442  0  2.79797  0
Cu  Cu7  1  0.17296194  0.91810441  0.12528990  1  0  0.386337  0  2.284038  0  0  0.301944  0  2.781264  0  0  0.290371  0  2.75246  0  0  0.464222  0.313435  0  2.797856  0
H  H8  1  0.18009028  0.43563223  0.28178971  1  0  0.079992  0  0.966455  0  0  0.0861  0  1.034869  0  0  0.090216  0  1.030443  0  0  0.10162  0.082876  0  1.038382  0
H  H9  1  0.68031249  0.84622238  0.28185554  1  0  0.079893  0  0.965147  0  0  0.085915  0  1.033775  0  0  0.090051  0  1.029313  0  0  0.101503  0.082701  0  1.037282  0
H  H10  1  0.68030661  0.15377449  0.71814650  1  0  0.079832  0  0.96534  0  0  0.085884  0  1.033929  0  0  0.090006  0  1.029483  0  0  0.101509  0.082667  0  1.037435  0
H  H11  1  0.18008765  0.56437046  0.71820898  1  0  0.080054  0  0.966488  0  0  0.086147  0  1.034908  0  0  0.090277  0  1.030463  0  0  0.10165  0.082922  0  1.038426  0
H  H12  1  0.29350255  0.58112748  0.28287566  1  0  0.120018  0  0.924828  0  0  0.134015  0  0.974006  0  0  0.137617  0  0.972874  0  0  0.114995  0.131339  0  0.975113  0
H  H13  1  0.79359782  0.70180594  0.28305890  1  0  0.120736  0  0.925005  0  0  0.134479  0  0.974357  0  0  0.138083  0  0.973212  0  0  0.115134  0.131806  0  0.975464  0
H  H14  1  0.79358814  0.29819324  0.71694013  1  0  0.120722  0  0.924946  0  0  0.134459  0  0.974323  0  0  0.138057  0  0.973175  0  0  0.11511  0.131785  0  0.97543  0
H  H15  1  0.29350128  0.41887037  0.71711545  1  0  0.120125  0  0.924767  0  0  0.134093  0  0.973981  0  0  0.137693  0  0.972855  0  0  0.115068  0.131425  0  0.975078  0
H  H16  1  0.48522167  0.33570038  0.04531046  1  0  0.104544  0  0.967528  0  0  0.115283  0  1.03179  0  0  0.117929  0  1.030929  0  0  0.098544  0.113162  0  1.032877  0
H  H17  1  0.98544395  0.70944197  0.04536583  1  0  0.10452  0  0.96656  0  0  0.115215  0  1.030949  0  0  0.117918  0  1.030026  0  0  0.098563  0.113103  0  1.032013  0
H  H18  1  0.98544417  0.29055630  0.95462915  1  0  0.104519  0  0.966607  0  0  0.115219  0  1.030981  0  0  0.117926  0  1.030053  0  0  0.098576  0.113105  0  1.032044  0
H  H19  1  0.48522609  0.66428945  0.95468736  1  0  0.104505  0  0.96748  0  0  0.115241  0  1.031754  0  0  0.117885  0  1.030894  0  0  0.098505  0.113118  0  1.032849  0
H  H20  1  0.36454220  0.20298616  0.05490674  1  0  0.081051  0  0.955298  0  0  0.088138  0  1.025024  0  0  0.089572  0  1.024298  0  0  0.104581  0.086635  0  1.026229  0
H  H21  1  0.86485432  0.85175590  0.05487673  1  0  0.081576  0  0.95538  0  0  0.088721  0  1.025182  0  0  0.090153  0  1.024472  0  0  0.105211  0.087222  0  1.026366  0
H  H22  1  0.86485422  0.14824007  0.94512255  1  0  0.081578  0  0.955367  0  0  0.088715  0  1.025171  0  0  0.09015  0  1.024458  0  0  0.105185  0.087215  0  1.026357  0
H  H23  1  0.36454765  0.79700613  0.94509420  1  0  0.081025  0  0.955238  0  0  0.08812  0  1.024981  0  0  0.089553  0  1.024255  0  0  0.104539  0.086618  0  1.026187  0
H  H24  1  0.15541141  0.68745189  0.06665560  1  0  0.06709  0  0.953643  0  0  0.074704  0  1.024015  0  0  0.078117  0  1.019889  0  0  0.105586  0.072113  0  1.02719  0
H  H25  1  0.65561000  0.37907790  0.06648648  1  0  0.067194  0  0.953676  0  0  0.075067  0  1.023675  0  0  0.078431  0  1.019616  0  0  0.105822  0.072482  0  1.026828  0
H  H26  1  0.65560151  0.62092851  0.93352107  1  0  0.067309  0  0.953669  0  0  0.075193  0  1.023649  0  0  0.078544  0  1.019605  0  0  0.105881  0.07261  0  1.026804  0
H  H27  1  0.15541300  0.31254683  0.93333850  1  0  0.067075  0  0.953548  0  0  0.074688  0  1.023924  0  0  0.078104  0  1.019793  0  0  0.10558  0.0721  0  1.027095  0
H  H28  1  0.26067994  0.55246779  0.08735809  1  0  0.103141  0  0.976029  0  0  0.113192  0  1.037485  0  0  0.116051  0  1.037582  0  0  0.101063  0.111213  0  1.037538  0
H  H29  1  0.76087312  0.53481913  0.08737299  1  0  0.103505  0  0.976365  0  0  0.113653  0  1.03758  0  0  0.116513  0  1.037677  0  0  0.10116  0.111665  0  1.037649  0
H  H30  1  0.76086024  0.46518087  0.91262956  1  0  0.103462  0  0.976389  0  0  0.113635  0  1.037562  0  0  0.116496  0  1.03766  0  0  0.101159  0.11165  0  1.037625  0
H  H31  1  0.26068004  0.44752690  0.91262943  1  0  0.103087  0  0.976093  0  0  0.11309  0  1.037612  0  0  0.115939  0  1.037707  0  0  0.101056  0.11111  0  1.037664  0
H  H32  1  0.51946596  0.78422051  0.20956734  1  0  0.112541  0  0.96607  0  0  0.119833  0  1.031842  0  0  0.123679  0  1.029843  0  0  0.10161  0.116926  0  1.033647  0
H  H33  1  0.01925496  0.42557288  0.21031951  1  0  0.112691  0  0.965292  0  0  0.119846  0  1.031442  0  0  0.123682  0  1.029445  0  0  0.101803  0.116952  0  1.033238  0
H  H34  1  0.01923750  0.57442831  0.78967964  1  0  0.112614  0  0.965285  0  0  0.1198  0  1.031436  0  0  0.123636  0  1.029438  0  0  0.101782  0.116911  0  1.033228  0
H  H35  1  0.51946765  0.21577644  0.79043521  1  0  0.112515  0  0.966173  0  0  0.119791  0  1.031959  0  0  0.123635  0  1.029961  0  0  0.101601  0.116887  0  1.033762  0
H  H36  1  0.40281327  0.90925039  0.18698624  1  0  0.087117  0  0.970204  0  0  0.094424  0  1.03699  0  0  0.097133  0  1.034696  0  0  0.098471  0.092139  0  1.039065  0
H  H37  1  0.90267357  0.27776724  0.18737844  1  0  0.087733  0  0.969326  0  0  0.094741  0  1.036382  0  0  0.097449  0  1.034105  0  0  0.098431  0.092428  0  1.038482  0
H  H38  1  0.90266377  0.72223426  0.81262488  1  0  0.087718  0  0.969416  0  0  0.094709  0  1.036463  0  0  0.097416  0  1.03419  0  0  0.098441  0.092381  0  1.038577  0
H  H39  1  0.40281803  0.09074823  0.81302244  1  0  0.087108  0  0.970284  0  0  0.094442  0  1.037022  0  0  0.097149  0  1.034736  0  0  0.098459  0.092155  0  1.039097  0
H  H40  1  0.97643447  0.95184635  0.78399198  1  0  0.080951  0  0.955948  0  0  0.088976  0  1.024428  0  0  0.090834  0  1.02229  0  0  0.101947  0.087205  0  1.026559  0
H  H41  1  0.47642635  0.83184359  0.78414159  1  0  0.08111  0  0.954989  0  0  0.089068  0  1.023732  0  0  0.090974  0  1.021558  0  0  0.101968  0.087211  0  1.025942  0
H  H42  1  0.47643113  0.16815577  0.21585649  1  0  0.081114  0  0.955023  0  0  0.089041  0  1.023807  0  0  0.090943  0  1.021638  0  0  0.101983  0.087183  0  1.026018  0
H  H43  1  0.97643407  0.04815591  0.21600808  1  0  0.080931  0  0.956022  0  0  0.088949  0  1.024522  0  0  0.090813  0  1.022376  0  0  0.101954  0.087177  0  1.026658  0
H  H44  1  0.84695870  0.91863122  0.64557180  1  0  0.122954  0  0.940161  0  0  0.132301  0  1.0006  0  0  0.136317  0  0.998351  0  0  0.10475  0.129221  0  1.002583  0
H  H45  1  0.34685872  0.72672104  0.64585327  1  0  0.123002  0  0.939279  0  0  0.13184  0  1.00036  0  0  0.13585  0  0.998108  0  0  0.104432  0.128766  0  1.00235  0
H  H46  1  0.34686173  0.27327521  0.35414539  1  0  0.123027  0  0.939219  0  0  0.131844  0  1.000336  0  0  0.135856  0  0.998084  0  0  0.10444  0.128772  0  1.002326  0
H  H47  1  0.84695438  0.08137348  0.35442735  1  0  0.122959  0  0.940042  0  0  0.132308  0  1.000505  0  0  0.136284  0  0.9983  0  0  0.104757  0.129232  0  1.002479  0
H  H48  1  0.04903186  0.11762572  0.56949662  1  0  0.116963  0  0.936296  0  0  0.130827  0  0.986168  0  0  0.134039  0  0.985599  0  0  0.112148  0.128546  0  0.986674  0
H  H49  1  0.54906701  0.45172839  0.56952630  1  0  0.116507  0  0.935758  0  0  0.130275  0  0.985912  0  0  0.133507  0  0.985322  0  0  0.112057  0.127989  0  0.986424  0
H  H50  1  0.54906307  0.54827092  0.43047082  1  0  0.116497  0  0.935735  0  0  0.130259  0  0.985893  0  0  0.133494  0  0.9853  0  0  0.112062  0.127971  0  0.986403  0
H  H51  1  0.04902501  0.88237387  0.43049930  1  0  0.116922  0  0.936517  0  0  0.130788  0  0.98638  0  0  0.134001  0  0.98581  0  0  0.112137  0.1285  0  0.986899  0
H  H52  1  0.17045691  0.14028161  0.70905222  1  0  0.074151  0  0.945074  0  0  0.085712  0  1.00246  0  0  0.087669  0  1.001228  0  0  0.112123  0.08446  0  1.003175  0
H  H53  1  0.67052818  0.56851863  0.70907439  1  0  0.074804  0  0.944204  0  0  0.086016  0  1.001974  0  0  0.08805  0  1.00067  0  0  0.112208  0.084721  0  1.002733  0
H  H54  1  0.67052606  0.43148537  0.29092483  1  0  0.074744  0  0.944233  0  0  0.085983  0  1.001978  0  0  0.088017  0  1.000674  0  0  0.11221  0.084689  0  1.002736  0
H  H55  1  0.17045151  0.85971553  0.29094524  1  0  0.074176  0  0.945115  0  0  0.085738  0  1.002492  0  0  0.087695  0  1.001257  0  0  0.112118  0.084487  0  1.003207  0
W  W56  1  0.17394770  0.99999916  0.00000141  1  0  0.77641  0  5.124631  0  0  0.794016  0  5.768087  0  0  0.859119  0  5.730619  0  0  0.823732  0.748412  0  5.797134  0
W  W57  1  0.67399963  0.99999902  0.00000135  1  0  0.776869  0  5.122983  0  0  0.794511  0  5.766312  0  0  0.859633  0  5.728812  0  0  0.823577  0.748939  0  5.795288  0
C  C58  1  0.24683380  0.41826035  0.22851193  1  0  0.1217  0  3.697221  0  0  0.093047  0  3.949287  0  0  0.098783  0  3.964691  0  0  0.038137  0.089174  0  3.939663  0
C  C59  1  0.74706572  0.81021278  0.22853720  1  0  0.121937  0  3.695867  0  0  0.093298  0  3.947596  0  0  0.099067  0  3.96303  0  0  0.038082  0.08939  0  3.937962  0
C  C60  1  0.74706011  0.18978802  0.77146497  1  0  0.121906  0  3.696138  0  0  0.093215  0  3.947862  0  0  0.099009  0  3.963307  0  0  0.038001  0.089308  0  3.938224  0
C  C61  1  0.24683392  0.58173834  0.77148597  1  0  0.121672  0  3.697299  0  0  0.093052  0  3.949353  0  0  0.098779  0  3.964739  0  0  0.038143  0.089176  0  3.939732  0
C  C62  1  0.31080311  0.49838759  0.22963879  1  0  -0.159705  0  3.732367  0  0  -0.178893  0  3.980145  0  0  -0.185671  0  4.000439  0  0  -0.085746  -0.174679  0  3.967003  0
C  C63  1  0.81096836  0.73122961  0.22978344  1  0  -0.160794  0  3.733838  0  0  -0.179869  0  3.981561  0  0  -0.186654  0  4.001777  0  0  -0.08581  -0.175649  0  3.968494  0
C  C64  1  0.81095840  0.26877036  0.77021803  1  0  -0.160805  0  3.73391  0  0  -0.179869  0  3.981696  0  0  -0.186638  0  4.001893  0  0  -0.085799  -0.175651  0  3.968626  0
C  C65  1  0.31080434  0.50160788  0.77035466  1  0  -0.159799  0  3.732383  0  0  -0.178988  0  3.980185  0  0  -0.185761  0  4.000459  0  0  -0.08584  -0.174774  0  3.967051  0
C  C66  1  0.39837026  0.47010849  0.16255203  1  0  0.074822  0  3.785048  0  0  0.092073  0  4.041218  0  0  0.097134  0  4.062714  0  0  0.002165  0.088482  0  4.026851  0
C  C67  1  0.89853634  0.69237460  0.16272294  1  0  0.075467  0  3.784183  0  0  0.092884  0  4.040038  0  0  0.098051  0  4.061397  0  0  0.002436  0.089206  0  4.025801  0
C  C68  1  0.89852915  0.30762691  0.83727970  1  0  0.075652  0  3.784255  0  0  0.093  0  4.04018  0  0  0.098162  0  4.061543  0  0  0.002478  0.08932  0  4.025942  0
C  C69  1  0.39837108  0.52988296  0.83744008  1  0  0.074853  0  3.78494  0  0  0.092134  0  4.041056  0  0  0.097198  0  4.062545  0  0  0.002211  0.088544  0  4.026689  0
C  C70  1  0.41844667  0.36247153  0.09874766  1  0  -0.153351  0  3.720048  0  0  -0.17449  0  3.968861  0  0  -0.181923  0  3.992027  0  0  -0.089882  -0.16984  0  3.953938  0
C  C71  1  0.91863344  0.73617354  0.09883769  1  0  -0.153926  0  3.719048  0  0  -0.17506  0  3.967847  0  0  -0.182575  0  3.990928  0  0  -0.090099  -0.170385  0  3.952979  0
C  C72  1  0.91863094  0.26382637  0.90116167  1  0  -0.153923  0  3.719149  0  0  -0.175045  0  3.96795  0  0  -0.182558  0  3.991028  0  0  -0.090076  -0.170366  0  3.953077  0
C  C73  1  0.41844836  0.63752071  0.90124823  1  0  -0.153448  0  3.720076  0  0  -0.174577  0  3.968918  0  0  -0.182012  0  3.992088  0  0  -0.089909  -0.169926  0  3.953995  0
C  C74  1  0.35023372  0.28766117  0.10328565  1  0  0.141906  0  3.680209  0  0  0.114586  0  3.928386  0  0  0.120377  0  3.946569  0  0  0.044776  0.110667  0  3.916809  0
C  C75  1  0.85049685  0.81550684  0.10325603  1  0  0.142451  0  3.681008  0  0  0.114988  0  3.929043  0  0  0.12081  0  3.947264  0  0  0.04456  0.111054  0  3.917454  0
C  C76  1  0.85049705  0.18449311  0.89674565  1  0  0.142314  0  3.680911  0  0  0.114837  0  3.928934  0  0  0.120674  0  3.947162  0  0  0.044493  0.110898  0  3.917349  0
C  C77  1  0.35023671  0.71233429  0.89671466  1  0  0.141992  0  3.680238  0  0  0.114635  0  3.928468  0  0  0.120426  0  3.946639  0  0  0.044852  0.110709  0  3.916887  0
C  C78  1  0.23639590  0.70591159  0.09884510  1  0  0.118032  0  3.738055  0  0  0.087659  0  3.996517  0  0  0.094764  0  4.011101  0  0  0.033035  0.083103  0  3.986924  0
C  C79  1  0.73653156  0.39283446  0.09881089  1  0  0.118052  0  3.738231  0  0  0.087338  0  3.996873  0  0  0.094531  0  4.011445  0  0  0.033089  0.082782  0  3.987262  0
C  C80  1  0.73652046  0.60717191  0.90119774  1  0  0.117978  0  3.738469  0  0  0.087252  0  3.997137  0  0  0.094456  0  4.011713  0  0  0.033027  0.08269  0  3.987526  0
C  C81  1  0.23639651  0.29408631  0.90115238  1  0  0.118061  0  3.738029  0  0  0.087676  0  3.996487  0  0  0.094781  0  4.011065  0  0  0.033049  0.083116  0  3.986894  0
C  C82  1  0.29588305  0.63005817  0.10960943  1  0  -0.183827  0  3.771776  0  0  -0.202017  0  4.021636  0  0  -0.210439  0  4.043651  0  0  -0.098974  -0.196516  0  4.006856  0
C  C83  1  0.79599741  0.47950892  0.10970877  1  0  -0.184734  0  3.772464  0  0  -0.203143  0  4.022234  0  0  -0.211536  0  4.044232  0  0  -0.099408  -0.197653  0  4.007442  0
C  C84  1  0.79598414  0.52049979  0.89029791  1  0  -0.184634  0  3.772506  0  0  -0.203043  0  4.022214  0  0  -0.211434  0  4.044209  0  0  -0.099307  -0.197545  0  4.007426  0
C  C85  1  0.29588409  0.36993572  0.89038323  1  0  -0.183746  0  3.771935  0  0  -0.201909  0  4.021804  0  0  -0.210314  0  4.043809  0  0  -0.098966  -0.196409  0  4.007024  0
C  C86  1  0.40077208  0.65574104  0.14945954  1  0  0.086538  0  3.790049  0  0  0.101287  0  4.045206  0  0  0.10884  0  4.064842  0  0  0.005676  0.096141  0  4.031861  0
C  C87  1  0.90079689  0.49374064  0.14977408  1  0  0.087126  0  3.790283  0  0  0.102626  0  4.044332  0  0  0.110105  0  4.064083  0  0  0.006164  0.097528  0  4.030915  0
C  C88  1  0.90078741  0.50626245  0.85022795  1  0  0.086706  0  3.790209  0  0  0.102257  0  4.044175  0  0  0.109735  0  4.063922  0  0  0.005942  0.097136  0  4.030793  0
C  C89  1  0.40077292  0.34425438  0.85053571  1  0  0.086399  0  3.790133  0  0  0.101179  0  4.045241  0  0  0.108729  0  4.064889  0  0  0.005616  0.096032  0  4.031894  0
C  C90  1  0.43973626  0.75772139  0.17665458  1  0  -0.159102  0  3.705016  0  0  -0.172025  0  3.942745  0  0  -0.179834  0  3.961771  0  0  -0.08864  -0.167241  0  3.930601  0
C  C91  1  0.93963957  0.41904066  0.17714034  1  0  -0.159657  0  3.704608  0  0  -0.172864  0  3.94254  0  0  -0.180622  0  3.961522  0  0  -0.089321  -0.168111  0  3.93041  0
C  C92  1  0.93962556  0.58096241  0.82286189  1  0  -0.159388  0  3.704845  0  0  -0.172652  0  3.942689  0  0  -0.18041  0  3.961675  0  0  -0.089264  -0.167895  0  3.930565  0
C  C93  1  0.43973810  0.24227481  0.82334588  1  0  -0.159001  0  3.705105  0  0  -0.171943  0  3.942853  0  0  -0.179737  0  3.961855  0  0  -0.088616  -0.167163  0  3.930712  0
C  C94  1  0.37384612  0.82891547  0.16389953  1  0  0.145471  0  3.664789  0  0  0.119032  0  3.908104  0  0  0.126669  0  3.921856  0  0  0.045357  0.113861  0  3.899503  0
C  C95  1  0.87379411  0.33499745  0.16419995  1  0  0.144933  0  3.663208  0  0  0.118599  0  3.906801  0  0  0.126281  0  3.920604  0  0  0.045401  0.113436  0  3.898197  0
C  C96  1  0.87378310  0.66500328  0.83580353  1  0  0.144996  0  3.663563  0  0  0.118735  0  3.907123  0  0  0.12642  0  3.920919  0  0  0.045465  0.113581  0  3.89852  0
C  C97  1  0.37384833  0.17108395  0.83610470  1  0  0.145424  0  3.664988  0  0  0.118986  0  3.908254  0  0  0.126623  0  3.92201  0  0  0.045412  0.113818  0  3.89965  0
C  C98  1  0.98988414  0.98710282  0.73471608  1  0  0.145064  0  3.678278  0  0  0.118405  0  3.923755  0  0  0.12582  0  3.939605  0  0  0.04328  0.1134  0  3.913844  0
C  C99  1  0.48984397  0.74733881  0.73489436  1  0  0.145174  0  3.678228  0  0  0.118272  0  3.923709  0  0  0.125656  0  3.939591  0  0  0.042945  0.113282  0  3.913757  0
C  C100  1  0.48984799  0.25265974  0.26510344  1  0  0.145253  0  3.6782  0  0  0.118359  0  3.92366  0  0  0.125748  0  3.939551  0  0  0.042966  0.113369  0  3.913713  0
C  C101  1  0.98988103  0.01290498  0.26528456  1  0  0.145133  0  3.678277  0  0  0.118429  0  3.923754  0  0  0.12585  0  3.939598  0  0  0.043259  0.113418  0  3.913845  0
C  C102  1  0.91767082  0.96835650  0.65687743  1  0  -0.14209  0  3.685242  0  0  -0.160396  0  3.9272  0  0  -0.167746  0  3.94707  0  0  -0.08454  -0.155791  0  3.914348  0
C  C103  1  0.41759280  0.68830099  0.65711475  1  0  -0.141853  0  3.683392  0  0  -0.159701  0  3.925326  0  0  -0.16704  0  3.945287  0  0  -0.084065  -0.155085  0  3.91239  0
C  C104  1  0.41759638  0.31169602  0.34288396  1  0  -0.141944  0  3.683339  0  0  -0.159753  0  3.925243  0  0  -0.167079  0  3.94516  0  0  -0.084098  -0.155141  0  3.91231  0
C  C105  1  0.91766983  0.03164975  0.34312413  1  0  -0.142141  0  3.68514  0  0  -0.160466  0  3.927119  0  0  -0.16778  0  3.947011  0  0  -0.084561  -0.155856  0  3.914256  0
C  C106  1  0.93743660  0.01524922  0.59547440  1  0  0.077993  0  3.777088  0  0  0.093903  0  4.034139  0  0  0.099765  0  4.055719  0  0  0.006381  0.08998  0  4.019386  0
C  C107  1  0.43742956  0.58005188  0.59559076  1  0  0.077435  0  3.776392  0  0  0.093733  0  4.03292  0  0  0.099511  0  4.054605  0  0  0.006697  0.089826  0  4.018173  0
C  C108  1  0.43742996  0.41994671  0.40440810  1  0  0.077444  0  3.776428  0  0  0.093686  0  4.033027  0  0  0.09948  0  4.054691  0  0  0.006713  0.089785  0  4.018271  0
C  C109  1  0.93743803  0.98475464  0.40452285  1  0  0.078101  0  3.777302  0  0  0.094069  0  4.034248  0  0  0.099936  0  4.055819  0  0  0.006503  0.090148  0  4.019497  0
C  C110  1  0.03011361  0.07872294  0.61465810  1  0  -0.171921  0  3.763087  0  0  -0.189921  0  4.009905  0  0  -0.19769  0  4.031782  0  0  -0.092  -0.184737  0  3.995055  0
C  C111  1  0.53012028  0.53575727  0.61473246  1  0  -0.170093  0  3.761868  0  0  -0.188127  0  4.008495  0  0  -0.195884  0  4.030435  0  0  -0.091556  -0.18295  0  3.993648  0
C  C112  1  0.53011793  0.46424285  0.38526559  1  0  -0.170008  0  3.761722  0  0  -0.188021  0  4.008373  0  0  -0.195785  0  4.030308  0  0  -0.091561  -0.182846  0  3.993521  0
C  C113  1  0.03010707  0.92127905  0.38534413  1  0  -0.171955  0  3.76353  0  0  -0.189986  0  4.010342  0  0  -0.197754  0  4.032216  0  0  -0.0921  -0.184798  0  3.995504  0
C  C114  1  0.09789044  0.09186068  0.69279229  1  0  0.118507  0  3.730415  0  0  0.090166  0  3.980606  0  0  0.096438  0  3.997369  0  0  0.032681  0.085708  0  3.970062  0
C  C115  1  0.59791960  0.60070014  0.69287213  1  0  0.117101  0  3.729508  0  0  0.088941  0  3.979644  0  0  0.095169  0  3.996433  0  0  0.032197  0.084448  0  3.969099  0
C  C116  1  0.59791934  0.39930073  0.30712463  1  0  0.117119  0  3.729453  0  0  0.088916  0  3.979609  0  0  0.095153  0  3.996389  0  0  0.032196  0.084424  0  3.969062  0
C  C117  1  0.09788498  0.90814126  0.30720562  1  0  0.118498  0  3.730408  0  0  0.090144  0  3.980583  0  0  0.096431  0  3.997352  0  0  0.032781  0.085686  0  3.970036  0
S  S118  1  0.06835251  0.13529203  0.01684543  1  0  -0.4835  0  2.395668  0  0  -0.47399  0  2.86791  0  0  -0.479972  0  2.847499  0  0  -0.418934  -0.4696  0  2.881546  0
S  S119  1  0.56840945  0.88155370  0.01686876  1  0  -0.483222  0  2.395237  0  0  -0.473768  0  2.867927  0  0  -0.479697  0  2.84746  0  0  -0.418819  -0.469388  0  2.881567  0
S  S120  1  0.56841539  0.11845038  0.98313594  1  0  -0.48317  0  2.395135  0  0  -0.473691  0  2.867775  0  0  -0.479635  0  2.847327  0  0  -0.418786  -0.469313  0  2.881418  0
S  S121  1  0.06835152  0.86470914  0.98315597  1  0  -0.483486  0  2.395699  0  0  -0.473979  0  2.867946  0  0  -0.479965  0  2.847537  0  0  -0.418932  -0.469596  0  2.881588  0
S  S122  1  0.27704586  0.94443279  0.86102860  1  0  -0.43862  0  2.364237  0  0  -0.426735  0  2.819569  0  0  -0.43115  0  2.798857  0  0  -0.404524  -0.423808  0  2.833584  0
S  S123  1  0.77709704  0.91662138  0.86103641  1  0  -0.438845  0  2.364516  0  0  -0.426867  0  2.819847  0  0  -0.431225  0  2.799056  0  0  -0.404583  -0.423986  0  2.833949  0
S  S124  1  0.77709996  0.08337782  0.13896719  1  0  -0.438797  0  2.364464  0  0  -0.426799  0  2.819771  0  0  -0.431145  0  2.798967  0  0  -0.404551  -0.42391  0  2.833857  0
S  S125  1  0.27704647  0.05556588  0.13897278  1  0  -0.438602  0  2.364267  0  0  -0.426727  0  2.819611  0  0  -0.43114  0  2.798898  0  0  -0.404529  -0.423803  0  2.83363  0
S  S126  1  0.48793861  0.56594153  0.16207028  1  0  -0.000825  0  2.396916  0  0  -0.007794  0  2.701729  0  0  -0.011981  0  2.703218  0  0  0.038874  -0.004498  0  2.700815  0
S  S127  1  0.98803809  0.59609642  0.16241178  1  0  -0.000886  0  2.396193  0  0  -0.008121  0  2.700552  0  0  -0.012319  0  2.702018  0  0  0.038734  -0.004814  0  2.699669  0
S  S128  1  0.98802730  0.40390424  0.83758762  1  0  -0.000855  0  2.39618  0  0  -0.008077  0  2.700518  0  0  -0.012278  0  2.701987  0  0  0.038727  -0.004768  0  2.699646  0
S  S129  1  0.48793900  0.43404907  0.83792059  1  0  -0.000742  0  2.396919  0  0  -0.00773  0  2.701721  0  0  -0.011917  0  2.703209  0  0  0.038903  -0.004431  0  2.700804  0
S  S130  1  0.84495471  0.00000149  0.50000022  1  0  0.025812  0  2.372549  0  0  0.015078  0  2.676837  0  0  0.011445  0  2.677403  0  0  0.04961  0.017725  0  2.676422  0
S  S131  1  0.34498250  0.49999812  0.49999799  1  0  0.02582  0  2.372022  0  0  0.01483  0  2.676145  0  0  0.011257  0  2.676763  0  0  0.049387  0.017451  0  2.675733  0
I  I132  1  0.07096949  0.28848472  0.33644804  1  0  -0.5697  0  0.999995  0  0  -0.532181  0  1.275044  0  0  -0.549732  0  1.254318  0  0  -0.349282  -0.5183  0  1.288047  0
I  I133  1  0.57090246  0.04770363  0.33627279  1  0  -0.569814  0  0.999212  0  0  -0.532255  0  1.274229  0  0  -0.549769  0  1.253532  0  0  -0.349712  -0.518395  0  1.287195  0
I  I134  1  0.57089791  0.95229646  0.66372747  1  0  -0.569809  0  0.999171  0  0  -0.532267  0  1.274193  0  0  -0.549789  0  1.253505  0  0  -0.34972  -0.518418  0  1.287161  0
I  I135  1  0.07095942  0.71152123  0.66356152  1  0  -0.56972  0  0.999996  0  0  -0.532214  0  1.275052  0  0  -0.549766  0  1.254325  0  0  -0.349282  -0.518333  0  1.288054  0
N  N136  1  0.26528586  0.31435573  0.16605885  1  0  -0.271069  0  3.324139  0  0  -0.202051  0  3.598662  0  0  -0.211762  0  3.609605  0  0  -0.347521  -0.196492  0  3.591825  0
N  N137  1  0.76555462  0.85160743  0.16601741  1  0  -0.271661  0  3.323931  0  0  -0.202289  0  3.598104  0  0  -0.212077  0  3.609075  0  0  -0.347694  -0.196681  0  3.591237  0
N  N138  1  0.76555125  0.14839336  0.83398486  1  0  -0.27149  0  3.323782  0  0  -0.202045  0  3.597872  0  0  -0.21188  0  3.608886  0  0  -0.347572  -0.19644  0  3.59101  0
N  N139  1  0.26528767  0.68564295  0.83394247  1  0  -0.271114  0  3.324221  0  0  -0.202098  0  3.598761  0  0  -0.211799  0  3.6097  0  0  -0.347548  -0.196521  0  3.591907  0
N  N140  1  0.27311763  0.80446460  0.12562175  1  0  -0.292468  0  3.33943  0  0  -0.225451  0  3.628067  0  0  -0.233894  0  3.63489  0  0  -0.360557  -0.220711  0  3.62369  0
N  N141  1  0.77318019  0.32107116  0.12563321  1  0  -0.29259  0  3.338894  0  0  -0.225307  0  3.62748  0  0  -0.233904  0  3.634449  0  0  -0.360798  -0.22052  0  3.623047  0
N  N142  1  0.77316861  0.67893361  0.87437622  1  0  -0.292634  0  3.338888  0  0  -0.225439  0  3.627538  0  0  -0.234037  0  3.634501  0  0  -0.360789  -0.220635  0  3.623086  0
N  N143  1  0.27311923  0.19553567  0.87438166  1  0  -0.29248  0  3.339449  0  0  -0.225453  0  3.628067  0  0  -0.233895  0  3.634889  0  0  -0.360587  -0.220711  0  3.623686  0
N  N144  1  0.07837836  0.04830005  0.75353891  1  0  -0.288888  0  3.351286  0  0  -0.218195  0  3.637393  0  0  -0.228062  0  3.646295  0  0  -0.363131  -0.212367  0  3.631562  0
N  N145  1  0.57839351  0.70499293  0.75364139  1  0  -0.289426  0  3.352269  0  0  -0.218292  0  3.638038  0  0  -0.228257  0  3.647115  0  0  -0.362691  -0.212265  0  3.631968  0
N  N146  1  0.57839561  0.29500954  0.24635732  1  0  -0.28948  0  3.352269  0  0  -0.218311  0  3.638001  0  0  -0.228287  0  3.647088  0  0  -0.362711  -0.212284  0  3.631929  0
N  N147  1  0.07837468  0.95170349  0.24646029  1  0  -0.288891  0  3.35139  0  0  -0.218123  0  3.637443  0  0  -0.228026  0  3.646385  0  0  -0.363146  -0.212289  0  3.631608  0
