# generated using pymatgen
data_ZnH14(C11N6)2
_symmetry_space_group_name_H-M   'P 1'
_cell_length_a   17.53902016
_cell_length_b   17.53898535
_cell_length_c   17.53899920
_cell_angle_alpha   109.31616577
_cell_angle_beta   109.31619768
_cell_angle_gamma   109.31614901
_symmetry_Int_Tables_number   1
_chemical_formula_structural   ZnH14(C11N6)2
_chemical_formula_sum   'Zn6 H84 C132 N72'
_cell_volume   4176.96647318
_cell_formula_units_Z   6
loop_
 _symmetry_equiv_pos_site_id
 _symmetry_equiv_pos_as_xyz
  1  'x, y, z'
loop_
 _atom_site_type_symbol
 _atom_site_label
 _atom_site_symmetry_multiplicity
 _atom_site_fract_x
 _atom_site_fract_y
 _atom_site_fract_z
 _atom_site_occupancy
 _atom_site_pbe_bader_charge
 _atom_site_pbe_bader_spin_density
 _atom_site_pbe_cm5_charge
 _atom_site_pbe_ddec_charge
 _atom_site_pbe_ddec_spin_density
 _atom_site_pbe_ddec_sum_bond_order
 _atom_site_pbe_magmom
Zn  Zn0  1  0.75264874  0.75210057  0.23727645  1  1.236915  0  0.703473  0.550221  0  2.555877  0
Zn  Zn1  1  0.75209986  0.23727590  0.75264830  1  1.236931  0  0.703487  0.55026  0  2.555839  0
Zn  Zn2  1  0.23727585  0.75264823  0.75209987  1  1.236935  0  0.703484  0.550239  0  2.555841  0
Zn  Zn3  1  0.24735195  0.24790045  0.76272384  1  1.236925  0  0.703494  0.550287  0  2.555816  0
Zn  Zn4  1  0.24790013  0.76272357  0.24735124  1  1.236993  0  0.703496  0.550245  0  2.555831  0
Zn  Zn5  1  0.76272414  0.24735244  0.24790064  1  1.236933  0  0.703487  0.550254  0  2.555841  0
H  H6  1  0.76024000  0.62222396  0.34876709  1  0.118372  0  0.118717  0.092422  0  1.009349  0
H  H7  1  0.62222342  0.34876718  0.76023987  1  0.118368  0  0.11871  0.09241  0  1.009385  0
H  H8  1  0.34876711  0.76024011  0.62222348  1  0.118366  0  0.118717  0.092422  0  1.009366  0
H  H9  1  0.23976068  0.37777766  0.65123339  1  0.118424  0  0.118694  0.092363  0  1.009334  0
H  H10  1  0.37777588  0.65123315  0.23976030  1  0.11837  0  0.118722  0.092436  0  1.009328  0
H  H11  1  0.65123219  0.23976022  0.37777669  1  0.118365  0  0.11872  0.092428  0  1.009359  0
H  H12  1  0.63714752  0.48023383  0.33208568  1  0.089483  0  0.116722  0.093793  0  0.978172  0
H  H13  1  0.48023435  0.33208635  0.63714739  1  0.089467  0  0.116723  0.093794  0  0.978186  0
H  H14  1  0.33208485  0.63714720  0.48023269  1  0.089568  0  0.116729  0.093829  0  0.978136  0
H  H15  1  0.36285456  0.51976848  0.66791777  1  0.089585  0  0.116721  0.093793  0  0.97821  0
H  H16  1  0.51976564  0.66791432  0.36285197  1  0.089484  0  0.116728  0.093812  0  0.978165  0
H  H17  1  0.66791445  0.36285252  0.51976670  1  0.089559  0  0.116732  0.093836  0  0.978133  0
H  H18  1  0.43523928  0.46669947  0.11214444  1  0.119613  0  0.120686  0.103782  0  0.982503  0
H  H19  1  0.46669948  0.11214445  0.43523920  1  0.119617  0  0.120679  0.103782  0  0.982518  0
H  H20  1  0.11214401  0.43523882  0.46669934  1  0.119604  0  0.120672  0.103763  0  0.982538  0
H  H21  1  0.56476141  0.53329974  0.88785638  1  0.119364  0  0.120673  0.103766  0  0.982531  0
H  H22  1  0.53329982  0.88785527  0.56476076  1  0.119614  0  0.120676  0.103778  0  0.982516  0
H  H23  1  0.88785668  0.56476039  0.53330206  1  0.11928  0  0.120678  0.103764  0  0.982543  0
H  H24  1  0.30796238  0.57874245  0.94262973  1  0.115299  0  0.104909  0.11706  0  1.028643  0
H  H25  1  0.57874180  0.94262844  0.30796047  1  0.115288  0  0.104907  0.117095  0  1.028668  0
H  H26  1  0.94262822  0.30795966  0.57874107  1  0.11528  0  0.104898  0.117082  0  1.028666  0
H  H27  1  0.69203831  0.42125736  0.05737072  1  0.115307  0  0.104886  0.117044  0  1.028652  0
H  H28  1  0.42125820  0.05737103  0.69203907  1  0.115284  0  0.104901  0.117084  0  1.028669  0
H  H29  1  0.05737039  0.69203851  0.42125815  1  0.115279  0  0.104897  0.117094  0  1.028658  0
H  H30  1  0.20802004  0.61439244  0.83564305  1  0.09267  0  0.114252  0.088204  0  1.011726  0
H  H31  1  0.61439094  0.83564080  0.20801779  1  0.09263  0  0.114235  0.088181  0  1.011699  0
H  H32  1  0.83564090  0.20801842  0.61439201  1  0.092637  0  0.114234  0.088198  0  1.0117  0
H  H33  1  0.79198065  0.38560737  0.16435798  1  0.092655  0  0.114245  0.08819  0  1.011714  0
H  H34  1  0.38560836  0.16435892  0.79198161  1  0.092636  0  0.11423  0.088188  0  1.011705  0
H  H35  1  0.16435701  0.79198062  0.38560784  1  0.092648  0  0.114241  0.088186  0  1.011737  0
H  H36  1  0.43174712  0.78160285  0.82640742  1  0.100899  0  0.114075  0.083216  0  1.021313  0
H  H37  1  0.78160327  0.82640812  0.43174657  1  0.100873  0  0.114085  0.083285  0  1.021263  0
H  H38  1  0.82640734  0.43174631  0.78160257  1  0.100875  0  0.114076  0.083247  0  1.021283  0
H  H39  1  0.56825357  0.21839696  0.17359246  1  0.100864  0  0.114077  0.083258  0  1.021288  0
H  H40  1  0.21839811  0.17359324  0.56825405  1  0.100676  0  0.114087  0.083274  0  1.021265  0
H  H41  1  0.17359196  0.56825281  0.21839720  1  0.100912  0  0.114074  0.083238  0  1.021295  0
H  H42  1  0.54069898  0.75363058  0.93332246  1  0.116805  0  0.111043  0.118053  0  1.005077  0
H  H43  1  0.75363156  0.93332327  0.54069970  1  0.116799  0  0.111046  0.118045  0  1.005084  0
H  H44  1  0.93332272  0.54069945  0.75363007  1  0.116817  0  0.111019  0.118005  0  1.005148  0
H  H45  1  0.45930171  0.24636983  0.06667763  1  0.116828  0  0.111011  0.118022  0  1.005134  0
H  H46  1  0.24636982  0.06667748  0.45930187  1  0.116838  0  0.111022  0.118009  0  1.005169  0
H  H47  1  0.06667728  0.45930062  0.24636967  1  0.116809  0  0.111033  0.118034  0  1.005129  0
H  H48  1  0.75727083  0.89244790  0.13527680  1  0.113379  0  0.121882  0.097267  0  0.991957  0
H  H49  1  0.89244930  0.13527715  0.75727261  1  0.113422  0  0.121882  0.097243  0  0.991981  0
H  H50  1  0.13527734  0.75727274  0.89244931  1  0.113426  0  0.121882  0.097245  0  0.991985  0
H  H51  1  0.24272916  0.10755278  0.86472314  1  0.113391  0  0.121893  0.097288  0  0.991961  0
H  H52  1  0.10754999  0.86472197  0.24272829  1  0.113375  0  0.121896  0.097284  0  0.991968  0
H  H53  1  0.86472266  0.24272794  0.10755120  1  0.113409  0  0.121882  0.097271  0  0.991976  0
H  H54  1  0.88302216  0.04274943  0.16773104  1  0.076187  0  0.115829  0.091642  0  0.981785  0
H  H55  1  0.04275091  0.16773127  0.88302298  1  0.076184  0  0.115813  0.091603  0  0.981765  0
H  H56  1  0.16773147  0.88302339  0.04275107  1  0.07617  0  0.115812  0.091603  0  0.981788  0
H  H57  1  0.11697783  0.95725124  0.83226776  1  0.076205  0  0.115843  0.091638  0  0.981757  0
H  H58  1  0.95724908  0.83227000  0.11697829  1  0.07627  0  0.115809  0.09162  0  0.981714  0
H  H59  1  0.83226922  0.11697823  0.95724941  1  0.076292  0  0.115809  0.091584  0  0.981753  0
H  H60  1  0.07379235  0.04867953  0.39014407  1  0.105744  0  0.122472  0.107538  0  0.973414  0
H  H61  1  0.04867977  0.39014573  0.07379288  1  0.105707  0  0.122466  0.10751  0  0.973452  0
H  H62  1  0.39014497  0.07379290  0.04867952  1  0.105714  0  0.122465  0.107508  0  0.97343  0
H  H63  1  0.92620765  0.95132175  0.60985493  1  0.105736  0  0.12248  0.107534  0  0.973407  0
H  H64  1  0.95132022  0.60985434  0.92620685  1  0.105707  0  0.122465  0.107509  0  0.973445  0
H  H65  1  0.60985572  0.92620751  0.95132170  1  0.10573  0  0.122464  0.107502  0  0.973467  0
H  H66  1  0.93768086  0.73086931  0.53100292  1  0.117138  0  0.110688  0.116328  0  1.006382  0
H  H67  1  0.73086877  0.53100319  0.93768039  1  0.117129  0  0.110688  0.116334  0  1.006365  0
H  H68  1  0.53100333  0.93767979  0.73086875  1  0.117092  0  0.110683  0.116322  0  1.006387  0
H  H69  1  0.06231913  0.26913136  0.46899644  1  0.117123  0  0.110687  0.116339  0  1.006382  0
H  H70  1  0.26913122  0.46899688  0.06231935  1  0.117107  0  0.110684  0.116317  0  1.006387  0
H  H71  1  0.46899667  0.06231846  0.26912925  1  0.117133  0  0.110688  0.116315  0  1.006388  0
H  H72  1  0.03785488  0.70592204  0.64913511  1  0.100751  0  0.114751  0.08357  0  1.018482  0
H  H73  1  0.70592247  0.64913656  0.03785594  1  0.10076  0  0.114778  0.083577  0  1.018478  0
H  H74  1  0.64913682  0.03785544  0.70592220  1  0.100745  0  0.114764  0.083565  0  1.018498  0
H  H75  1  0.96214372  0.29407795  0.35086300  1  0.100753  0  0.114769  0.083579  0  1.018484  0
H  H76  1  0.29407752  0.35086411  0.96214400  1  0.100761  0  0.11477  0.083604  0  1.018463  0
H  H77  1  0.35086526  0.96214445  0.29407874  1  0.100761  0  0.11477  0.083589  0  1.018471  0
H  H78  1  0.27852145  0.90600468  0.69061490  1  0.131209  0  0.113137  0.083655  0  1.030542  0
H  H79  1  0.90600570  0.69061608  0.27852301  1  0.131186  0  0.113147  0.083652  0  1.030539  0
H  H80  1  0.69061591  0.27852206  0.90600511  1  0.131201  0  0.11314  0.083643  0  1.0306  0
H  H81  1  0.72147924  0.09399453  0.30938535  1  0.131216  0  0.11315  0.083659  0  1.030573  0
H  H82  1  0.09399568  0.30938346  0.72147873  1  0.131209  0  0.113155  0.083639  0  1.030598  0
H  H83  1  0.30938269  0.72147551  0.09399334  1  0.131164  0  0.113141  0.083644  0  1.030544  0
H  H84  1  0.18828714  0.94124963  0.57640784  1  0.102456  0  0.10483  0.117185  0  1.032645  0
H  H85  1  0.94124960  0.57640811  0.18828705  1  0.102514  0  0.104849  0.117201  0  1.032621  0
H  H86  1  0.57640824  0.18828647  0.94125023  1  0.102493  0  0.104838  0.117186  0  1.032614  0
H  H87  1  0.81171285  0.05874924  0.42359150  1  0.102486  0  0.10486  0.117224  0  1.032598  0
H  H88  1  0.05874901  0.42359067  0.81171294  1  0.102493  0  0.104855  0.117213  0  1.032609  0
H  H89  1  0.42359036  0.81171231  0.05874919  1  0.1025  0  0.104853  0.117174  0  1.032619  0
C  C90  1  0.68712152  0.58642086  0.29585764  1  0.485203  0  0.053771  0.051738  0  3.932139  0
C  C91  1  0.58642080  0.29585835  0.68712149  1  0.485204  0  0.053756  0.051707  0  3.932174  0
C  C92  1  0.29585846  0.68712164  0.58642084  1  0.485188  0  0.05376  0.051715  0  3.932177  0
C  C93  1  0.31287987  0.41357929  0.70414259  1  0.48506  0  0.05379  0.051785  0  3.932136  0
C  C94  1  0.41357850  0.70414137  0.31287847  1  0.485116  0  0.053766  0.051752  0  3.932113  0
C  C95  1  0.70414223  0.31287817  0.41358019  1  0.485202  0  0.053747  0.0517  0  3.932175  0
C  C96  1  0.61902901  0.50882563  0.28653587  1  0.519322  0  0.041766  0.024418  0  3.985464  0
C  C97  1  0.50882531  0.28653667  0.61902944  1  0.519301  0  0.041772  0.024404  0  3.985461  0
C  C98  1  0.28653595  0.61902951  0.50882550  1  0.51922  0  0.041742  0.024352  0  3.985394  0
C  C99  1  0.38097237  0.49117573  0.71346590  1  0.51934  0  0.041792  0.024436  0  3.985531  0
C  C100  1  0.49117468  0.71346401  0.38097107  1  0.519407  0  0.041756  0.024352  0  3.985426  0
C  C101  1  0.71346405  0.38097117  0.49117558  1  0.519215  0  0.041752  0.02433  0  3.985413  0
C  C102  1  0.50769360  0.50091952  0.16576836  1  0.535739  0  0.055297  0.020806  0  3.918017  0
C  C103  1  0.50091968  0.16576957  0.50769372  1  0.535559  0  0.055287  0.020771  0  3.918013  0
C  C104  1  0.16576866  0.50769322  0.50091932  1  0.535557  0  0.055305  0.0208  0  3.918022  0
C  C105  1  0.49230708  0.49908089  0.83423287  1  0.535946  0  0.055274  0.020792  0  3.918029  0
C  C106  1  0.49907962  0.83423076  0.49230644  1  0.535553  0  0.05527  0.02073  0  3.918025  0
C  C107  1  0.83423203  0.49230598  0.49908208  1  0.53585  0  0.055289  0.020817  0  3.918008  0
C  C108  1  0.57511401  0.57871296  0.17368560  1  0.496997  0  0.130911  0.133176  0  3.976019  0
C  C109  1  0.57871186  0.17368450  0.57511345  1  0.497031  0  0.130884  0.133082  0  3.975971  0
C  C110  1  0.17368475  0.57511390  0.57871222  1  0.497042  0  0.130871  0.133095  0  3.976084  0
C  C111  1  0.42488737  0.42128840  0.82631674  1  0.496973  0  0.130906  0.13311  0  3.97599  0
C  C112  1  0.42128744  0.82631523  0.42488595  1  0.497022  0  0.130878  0.133128  0  3.975948  0
C  C113  1  0.82631454  0.42488583  0.42128775  1  0.497002  0  0.13088  0.133092  0  3.976053  0
C  C114  1  0.55506441  0.61834531  0.11379214  1  0.98636  0  0.19484  0.211325  0  4.099324  0
C  C115  1  0.61834494  0.11379189  0.55506428  1  0.98634  0  0.194851  0.211382  0  4.099265  0
C  C116  1  0.11379168  0.55506335  0.61834502  1  0.9863  0  0.194859  0.211347  0  4.099297  0
C  C117  1  0.44493698  0.38165545  0.88620942  1  0.986307  0  0.19489  0.211391  0  4.099216  0
C  C118  1  0.38165435  0.88620723  0.44493606  1  0.98635  0  0.194841  0.211342  0  4.099219  0
C  C119  1  0.88620831  0.44493612  0.38165565  1  0.986342  0  0.194857  0.211388  0  4.099252  0
C  C120  1  0.49680359  0.65589751  0.01704523  1  0.94422  0  0.191141  0.234754  0  4.093267  0
C  C121  1  0.65589761  0.01704534  0.49680217  1  0.943716  0  0.191109  0.234643  0  4.093342  0
C  C122  1  0.01704526  0.49680235  0.65589831  1  0.943716  0  0.191132  0.234713  0  4.093299  0
C  C123  1  0.50319710  0.34410170  0.98295503  1  0.943706  0  0.191146  0.234747  0  4.093236  0
C  C124  1  0.34410378  0.98295602  0.50319789  1  0.944115  0  0.191061  0.234636  0  4.093356  0
C  C125  1  0.98295473  0.50319712  0.34410237  1  0.94408  0  0.19112  0.234685  0  4.093336  0
C  C126  1  0.43295419  0.66539449  0.94792881  1  0.010026  0  0.014151  0.075026  0  3.99689  0
C  C127  1  0.66539431  0.94792919  0.43295238  1  0.01072  0  0.014189  0.075136  0  3.996795  0
C  C128  1  0.94792862  0.43295237  0.66539443  1  0.010735  0  0.014162  0.075002  0  3.996849  0
C  C129  1  0.56704719  0.33460566  0.05207142  1  0.010721  0  0.014148  0.07501  0  3.996843  0
C  C130  1  0.33460638  0.05207122  0.56704770  1  0.010366  0  0.014175  0.07503  0  3.996834  0
C  C131  1  0.05206998  0.56704640  0.33460499  1  0.010228  0  0.014187  0.075111  0  3.996803  0
C  C132  1  0.33739014  0.62368166  0.91772540  1  -0.109155  0  -0.085083  -0.164202  0  3.927782  0
C  C133  1  0.62368017  0.91772399  0.33738816  1  -0.109172  0  -0.08511  -0.164309  0  3.927823  0
C  C134  1  0.91772395  0.33738772  0.62368030  1  -0.10916  0  -0.085097  -0.16426  0  3.927806  0
C  C135  1  0.66261124  0.37631849  0.08227597  1  -0.109164  0  -0.085086  -0.164218  0  3.927802  0
C  C136  1  0.37631982  0.08227608  0.66261215  1  -0.109172  0  -0.085106  -0.164273  0  3.927832  0
C  C137  1  0.08227534  0.66261140  0.37631947  1  -0.10916  0  -0.085115  -0.164312  0  3.92781  0
C  C138  1  0.28215495  0.64347378  0.85853566  1  0.487574  0  0.038074  0.08357  0  3.959074  0
C  C139  1  0.64347315  0.85853438  0.28215337  1  0.487575  0  0.038119  0.083671  0  3.958977  0
C  C140  1  0.85853363  0.28215336  0.64347290  1  0.487568  0  0.038102  0.083636  0  3.958994  0
C  C141  1  0.71784574  0.35652603  0.14146537  1  0.487563  0  0.038082  0.083646  0  3.959074  0
C  C142  1  0.35652754  0.14146604  0.71784671  1  0.487557  0  0.038099  0.083663  0  3.95896  0
C  C143  1  0.14146498  0.71784601  0.35652672  1  0.487569  0  0.038105  0.083634  0  3.959023  0
C  C144  1  0.40712039  0.73691132  0.85358379  1  0.44816  0  0.038119  0.083496  0  3.970331  0
C  C145  1  0.73691091  0.85358347  0.40711940  1  0.448171  0  0.038114  0.083454  0  3.970324  0
C  C146  1  0.85358361  0.40711991  0.73691060  1  0.448204  0  0.038069  0.0834  0  3.970298  0
C  C147  1  0.59288030  0.26308849  0.14641609  1  0.448195  0  0.038129  0.083454  0  3.970315  0
C  C148  1  0.26308908  0.14641660  0.59288034  1  0.448561  0  0.038145  0.083485  0  3.970339  0
C  C149  1  0.14641569  0.59287982  0.26308880  1  0.448263  0  0.038129  0.083474  0  3.970331  0
C  C150  1  0.46732121  0.72159657  0.91276586  1  0.009669  0  -0.079243  -0.157017  0  3.960595  0
C  C151  1  0.72159727  0.91276654  0.46731984  1  0.009549  0  -0.079247  -0.15704  0  3.96054  0
C  C152  1  0.91276515  0.46731986  0.72159574  1  0.009467  0  -0.079199  -0.156882  0  3.960559  0
C  C153  1  0.53268018  0.27840238  0.08723397  1  0.009467  0  -0.079225  -0.156957  0  3.960609  0
C  C154  1  0.27840342  0.08723387  0.53268024  1  0.009318  0  -0.07922  -0.15691  0  3.960583  0
C  C155  1  0.08723276  0.53267917  0.27840240  1  0.009667  0  -0.079228  -0.156965  0  3.96056  0
C  C156  1  0.82845120  0.92818241  0.19238766  1  0.497587  0  0.052457  0.045972  0  3.945483  0
C  C157  1  0.92818443  0.19238799  0.82845454  1  0.497604  0  0.052431  0.045981  0  3.945532  0
C  C158  1  0.19238787  0.82845486  0.92818384  1  0.497619  0  0.052449  0.046022  0  3.945477  0
C  C159  1  0.17154880  0.07181646  0.80761054  1  0.497581  0  0.052377  0.045845  0  3.945476  0
C  C160  1  0.07181625  0.80761303  0.17154575  1  0.497634  0  0.052426  0.045906  0  3.945465  0
C  C161  1  0.80761212  0.17154642  0.07181630  1  0.497601  0  0.052471  0.045945  0  3.945425  0
C  C162  1  0.89810390  0.01047779  0.21022812  1  0.536686  0  0.042901  0.028781  0  3.982805  0
C  C163  1  0.01047943  0.21022944  0.89810648  1  0.536678  0  0.04293  0.028848  0  3.982659  0
C  C164  1  0.21022967  0.89810735  0.01047971  1  0.536704  0  0.042931  0.028825  0  3.982668  0
C  C165  1  0.10189540  0.98952194  0.78977070  1  0.536704  0  0.042937  0.028885  0  3.982606  0
C  C166  1  0.98952126  0.78977218  0.10189287  1  0.536587  0  0.042918  0.028836  0  3.982515  0
C  C167  1  0.78977102  0.10189366  0.98952114  1  0.536584  0  0.04297  0.028958  0  3.98256  0
C  C168  1  0.00323789  0.01432104  0.33251058  1  0.55567  0  0.054153  0.016916  0  3.918895  0
C  C169  1  0.01432089  0.33251251  0.00323883  1  0.555866  0  0.054169  0.016988  0  3.91883  0
C  C170  1  0.33251149  0.00323895  0.01432030  1  0.555805  0  0.054174  0.01698  0  3.918844  0
C  C171  1  0.99676280  0.98567998  0.66748856  1  0.555853  0  0.054125  0.01688  0  3.918936  0
C  C172  1  0.98567840  0.66748842  0.99676097  1  0.555869  0  0.054159  0.016954  0  3.918878  0
C  C173  1  0.66748920  0.99676207  0.98568056  1  0.555822  0  0.054181  0.016964  0  3.918908  0
C  C174  1  0.93396419  0.93228885  0.31661854  1  0.507988  0  0.130633  0.130486  0  3.978473  0
C  C175  1  0.93228947  0.31661926  0.93396466  1  0.507948  0  0.130579  0.130422  0  3.978431  0
C  C176  1  0.31661904  0.93396513  0.93228896  1  0.508149  0  0.130617  0.130476  0  3.978398  0
C  C177  1  0.06603650  0.06771216  0.68338117  1  0.507978  0  0.13061  0.130469  0  3.978517  0
C  C178  1  0.06770983  0.68338168  0.06603457  1  0.507955  0  0.13062  0.130462  0  3.978395  0
C  C179  1  0.68338304  0.06603536  0.06771218  1  0.507988  0  0.13064  0.130546  0  3.978403  0
C  C180  1  0.94904871  0.88914968  0.37396326  1  0.94348  0  0.19721  0.212927  0  4.094507  0
C  C181  1  0.88914949  0.37396399  0.94904857  1  0.943501  0  0.197239  0.212942  0  4.094465  0
C  C182  1  0.37396388  0.94904887  0.88914959  1  0.943509  0  0.197234  0.212952  0  4.094393  0
C  C183  1  0.05095129  0.11085100  0.62603611  1  0.943487  0  0.197225  0.212975  0  4.094447  0
C  C184  1  0.11084981  0.62603695  0.05095066  1  0.943476  0  0.197232  0.212961  0  4.094405  0
C  C185  1  0.62603751  0.05095128  0.11085064  1  0.943433  0  0.197191  0.212863  0  4.09445  0
C  C186  1  0.99816977  0.84804720  0.47072132  1  0.924038  0  0.19212  0.230927  0  4.092817  0
C  C187  1  0.84804668  0.47072171  0.99817013  1  0.924079  0  0.192119  0.23091  0  4.092862  0
C  C188  1  0.47072167  0.99816932  0.84804640  1  0.924082  0  0.192134  0.230879  0  4.092923  0
C  C189  1  0.00183092  0.15195382  0.52927840  1  0.924031  0  0.192129  0.230876  0  4.092855  0
C  C190  1  0.15195262  0.52927802  0.00183040  1  0.924029  0  0.192114  0.23092  0  4.092877  0
C  C191  1  0.52927694  0.00182946  0.15195131  1  0.924157  0  0.192091  0.230808  0  4.092906  0
C  C192  1  0.05547404  0.83735284  0.54349802  1  -0.013378  0  0.014327  0.073655  0  4.007188  0
C  C193  1  0.83735155  0.54349734  0.05547452  1  -0.013404  0  0.01435  0.07369  0  4.007139  0
C  C194  1  0.54349821  0.05547372  0.83735244  1  -0.013377  0  0.014318  0.073651  0  4.007127  0
C  C195  1  0.94452595  0.16264784  0.45650192  1  -0.013367  0  0.014351  0.073743  0  4.007071  0
C  C196  1  0.16264774  0.45650238  0.94452602  1  -0.013408  0  0.014351  0.073681  0  4.007087  0
C  C197  1  0.45650039  0.94452325  0.16264581  1  -0.013401  0  0.014308  0.073591  0  4.007086  0
C  C198  1  0.01305905  0.77123125  0.56572790  1  -0.004342  0  -0.078771  -0.156551  0  3.960056  0
C  C199  1  0.77123069  0.56572794  0.01305891  1  -0.004398  0  -0.07879  -0.156617  0  3.960067  0
C  C200  1  0.56572778  0.01305825  0.77123035  1  -0.004352  0  -0.078748  -0.156523  0  3.959998  0
C  C201  1  0.98694163  0.22877037  0.43427259  1  -0.004353  0  -0.078756  -0.156574  0  3.96  0
C  C202  1  0.22877000  0.43427308  0.98694137  1  -0.004338  0  -0.078734  -0.156477  0  3.960058  0
C  C203  1  0.43427291  0.98694035  0.22876970  1  -0.004401  0  -0.078739  -0.156482  0  3.960055  0
C  C204  1  0.06826158  0.75735824  0.63088990  1  0.485274  0  0.041971  0.090012  0  3.968457  0
C  C205  1  0.75735902  0.63089063  0.06826183  1  0.485336  0  0.041956  0.090031  0  3.968454  0
C  C206  1  0.63089028  0.06826062  0.75735826  1  0.485285  0  0.041943  0.089998  0  3.968474  0
C  C207  1  0.93173842  0.24264062  0.36910887  1  0.485267  0  0.041908  0.089935  0  3.968405  0
C  C208  1  0.24264097  0.36911004  0.93173810  1  0.485291  0  0.041886  0.08987  0  3.968476  0
C  C209  1  0.36911041  0.93173798  0.24264122  1  0.485359  0  0.041921  0.089957  0  3.968426  0
C  C210  1  0.20275806  0.86952377  0.65485530  1  0.428496  0  0.037793  0.084545  0  3.958356  0
C  C211  1  0.86952425  0.65485691  0.20275942  1  0.428479  0  0.037774  0.084502  0  3.958308  0
C  C212  1  0.65485695  0.20275910  0.86952473  1  0.428384  0  0.037792  0.08454  0  3.958365  0
C  C213  1  0.79724124  0.13047535  0.34514390  1  0.428375  0  0.037813  0.084569  0  3.958366  0
C  C214  1  0.13047505  0.34514341  0.79724075  1  0.428447  0  0.037799  0.0846  0  3.958376  0
C  C215  1  0.34514374  0.79724010  0.13047610  1  0.42848  0  0.037817  0.084549  0  3.958262  0
C  C216  1  0.15280918  0.88877929  0.59110952  1  -0.053444  0  -0.086192  -0.163715  0  3.930704  0
C  C217  1  0.88877914  0.59111039  0.15281010  1  -0.053427  0  -0.086194  -0.163681  0  3.930592  0
C  C218  1  0.59110998  0.15280981  0.88877927  1  -0.053347  0  -0.086186  -0.163677  0  3.93061  0
C  C219  1  0.84719082  0.11121957  0.40888982  1  -0.053386  0  -0.086256  -0.163798  0  3.930667  0
C  C220  1  0.11122016  0.40888873  0.84719024  1  -0.053428  0  -0.086209  -0.163744  0  3.930643  0
C  C221  1  0.40888932  0.84718931  0.11122106  1  -0.053429  0  -0.086164  -0.163558  0  3.930529  0
N  N222  1  0.66508234  0.62151460  0.24006324  1  -1.205317  0  -0.293561  -0.217121  0  3.417155  0
N  N223  1  0.62151439  0.24006310  0.66508251  1  -1.205285  0  -0.293542  -0.217049  0  3.41706  0
N  N224  1  0.24006356  0.66508245  0.62151456  1  -1.205296  0  -0.29354  -0.217057  0  3.417175  0
N  N225  1  0.33491835  0.37848521  0.75993722  1  -1.205267  0  -0.29354  -0.217069  0  3.417134  0
N  N226  1  0.37848490  0.75993662  0.33491746  1  -1.205316  0  -0.293547  -0.217115  0  3.417104  0
N  N227  1  0.75993643  0.33491762  0.37848575  1  -1.205294  0  -0.293524  -0.217035  0  3.417161  0
N  N228  1  0.52915364  0.46623157  0.22188390  1  -1.179291  0  -0.310218  -0.22726  0  3.314963  0
N  N229  1  0.46623138  0.22188517  0.52915382  1  -1.179117  0  -0.310176  -0.227173  0  3.314904  0
N  N230  1  0.22188386  0.52915313  0.46623069  1  -1.179107  0  -0.310154  -0.227165  0  3.314829  0
N  N231  1  0.47084635  0.53376790  0.77811564  1  -1.179265  0  -0.31022  -0.227247  0  3.314976  0
N  N232  1  0.53376861  0.77811550  0.47084668  1  -1.179104  0  -0.310148  -0.227126  0  3.314837  0
N  N233  1  0.77811544  0.47084659  0.53376927  1  -1.179056  0  -0.310164  -0.227169  0  3.314898  0
N  N234  1  0.47184929  0.59557898  0.04835322  1  -1.180051  0  -0.340861  -0.415778  0  3.160704  0
N  N235  1  0.59557887  0.04835407  0.47184781  1  -1.180063  0  -0.340875  -0.415773  0  3.160723  0
N  N236  1  0.04835284  0.47184761  0.59557887  1  -1.180002  0  -0.340882  -0.41576  0  3.160705  0
N  N237  1  0.52815279  0.40442092  0.95164716  1  -1.179991  0  -0.340876  -0.415768  0  3.160626  0
N  N238  1  0.40442112  0.95164600  0.52815250  1  -1.180102  0  -0.340846  -0.415733  0  3.160722  0
N  N239  1  0.95164716  0.52815246  0.40442201  1  -1.18008  0  -0.340879  -0.415832  0  3.160718  0
N  N240  1  0.62641838  0.68850420  0.12199919  1  -0.751521  0  -0.249557  -0.206261  0  3.594046  0
N  N241  1  0.68850340  0.12199844  0.62641715  1  -0.751754  0  -0.249521  -0.206242  0  3.594054  0
N  N242  1  0.12199900  0.62641660  0.68850382  1  -0.751698  0  -0.249542  -0.20625  0  3.594068  0
N  N243  1  0.37358231  0.31149561  0.87800126  1  -0.75174  0  -0.249532  -0.206218  0  3.593989  0
N  N244  1  0.31149521  0.87800033  0.37358284  1  -0.751696  0  -0.249512  -0.206196  0  3.593986  0
N  N245  1  0.87800100  0.37358226  0.31149609  1  -0.751508  0  -0.249525  -0.206228  0  3.59401  0
N  N246  1  0.59009534  0.71323931  0.06031145  1  -0.628761  0  -0.233165  -0.271317  0  3.179674  0
N  N247  1  0.71323902  0.06031073  0.59009370  1  -0.628472  0  -0.233162  -0.271291  0  3.179695  0
N  N248  1  0.06031058  0.59009436  0.71323887  1  -0.628539  0  -0.233172  -0.271317  0  3.179665  0
N  N249  1  0.40990535  0.28676050  0.93968957  1  -0.628529  0  -0.233205  -0.271388  0  3.179632  0
N  N250  1  0.28676097  0.93968934  0.40990604  1  -0.62853  0  -0.233167  -0.271333  0  3.17966  0
N  N251  1  0.93968803  0.40990442  0.28676055  1  -0.628736  0  -0.23318  -0.271309  0  3.179657  0
N  N252  1  0.31619300  0.70025149  0.82777737  1  -1.242502  0  -0.326295  -0.23559  0  3.533536  0
N  N253  1  0.70025144  0.82777665  0.31619250  1  -1.242552  0  -0.32632  -0.235658  0  3.53362  0
N  N254  1  0.82777594  0.31619231  0.70025086  1  -1.242545  0  -0.326277  -0.235628  0  3.533487  0
N  N255  1  0.68380769  0.29974892  0.17222385  1  -1.242567  0  -0.326304  -0.235673  0  3.533571  0
N  N256  1  0.29974994  0.17222471  0.68380813  1  -1.242535  0  -0.326328  -0.235731  0  3.533562  0
N  N257  1  0.17222336  0.68380741  0.29974911  1  -1.242643  0  -0.326324  -0.235657  0  3.533539  0
N  N258  1  0.84635458  0.88885384  0.24478713  1  -1.209324  0  -0.291332  -0.221658  0  3.413631  0
N  N259  1  0.88885542  0.24478718  0.84635541  1  -1.209287  0  -0.291319  -0.221665  0  3.413575  0
N  N260  1  0.24478756  0.84635560  0.88885557  1  -1.209453  0  -0.291333  -0.221703  0  3.413589  0
N  N261  1  0.15364611  0.11114657  0.75521238  1  -1.209323  0  -0.291336  -0.221685  0  3.413618  0
N  N262  1  0.11114388  0.75521315  0.15364475  1  -1.209271  0  -0.291325  -0.221642  0  3.413489  0
N  N263  1  0.75521451  0.15364610  0.11114597  1  -1.209283  0  -0.291399  -0.221733  0  3.413522  0
N  N264  1  0.98580999  0.05313607  0.27962820  1  -1.189187  0  -0.308972  -0.224518  0  3.31007  0
N  N265  1  0.05313769  0.27963068  0.98581239  1  -1.189385  0  -0.308966  -0.224553  0  3.309847  0
N  N266  1  0.27963070  0.98581214  0.05313824  1  -1.189414  0  -0.308958  -0.224525  0  3.309887  0
N  N267  1  0.01418930  0.94686426  0.72037083  1  -1.18935  0  -0.308936  -0.224467  0  3.309975  0
N  N268  1  0.94686160  0.72036965  0.01418720  1  -1.189434  0  -0.308949  -0.224516  0  3.309779  0
N  N269  1  0.72036999  0.01418767  0.94686278  1  -1.189383  0  -0.309004  -0.224606  0  3.309899  0
N  N270  1  0.87501243  0.81430875  0.35610254  1  -0.745524  0  -0.250157  -0.201535  0  3.605821  0
N  N271  1  0.81430851  0.35610312  0.87501227  1  -0.745507  0  -0.250187  -0.201599  0  3.605805  0
N  N272  1  0.35610309  0.87501268  0.81430867  1  -0.745505  0  -0.250181  -0.201584  0  3.605822  0
N  N273  1  0.12498757  0.18569192  0.64389626  1  -0.745527  0  -0.250166  -0.201616  0  3.605791  0
N  N274  1  0.18569149  0.64389755  0.12498710  1  -0.74552  0  -0.250145  -0.201484  0  3.605736  0
N  N275  1  0.64389621  0.12498705  0.18569129  1  -0.74549  0  -0.25018  -0.201588  0  3.605745  0
N  N276  1  0.90529454  0.78725060  0.41751916  1  -0.651208  0  -0.228798  -0.267237  0  3.197372  0
N  N277  1  0.78725023  0.41751979  0.90529531  1  -0.651322  0  -0.228759  -0.267177  0  3.197286  0
N  N278  1  0.41751925  0.90529440  0.78724994  1  -0.65125  0  -0.228788  -0.267175  0  3.197402  0
N  N279  1  0.09470545  0.21275007  0.58248021  1  -0.651255  0  -0.228753  -0.267116  0  3.197423  0
N  N280  1  0.21274837  0.58247959  0.09470545  1  -0.651187  0  -0.228848  -0.267305  0  3.197429  0
N  N281  1  0.58247797  0.09470368  0.21274765  1  -0.651333  0  -0.228784  -0.267146  0  3.197347  0
N  N282  1  0.02861213  0.91295031  0.44591672  1  -1.134915  0  -0.33926  -0.409678  0  3.146467  0
N  N283  1  0.91295033  0.44591771  0.02861180  1  -1.134881  0  -0.339258  -0.409634  0  3.146469  0
N  N284  1  0.44591796  0.02861174  0.91294961  1  -1.134928  0  -0.339287  -0.409699  0  3.146492  0
N  N285  1  0.97138786  0.08705036  0.55408265  1  -1.134877  0  -0.339278  -0.409701  0  3.146457  0
N  N286  1  0.08704966  0.55408296  0.97138814  1  -1.134887  0  -0.33925  -0.409687  0  3.146502  0
N  N287  1  0.55408273  0.97138746  0.08704951  1  -1.134898  0  -0.339224  -0.409594  0  3.146444  0
N  N288  1  0.16176999  0.80422930  0.67419326  1  -1.24149  0  -0.327651  -0.237041  0  3.538805  0
N  N289  1  0.80422976  0.67419390  0.16177017  1  -1.241511  0  -0.327682  -0.23706  0  3.53884  0
N  N290  1  0.67419391  0.16176965  0.80422978  1  -1.241474  0  -0.327667  -0.237062  0  3.538792  0
N  N291  1  0.83823000  0.19576895  0.32580645  1  -1.241469  0  -0.327658  -0.237034  0  3.538803  0
N  N292  1  0.19577024  0.32580677  0.83823034  1  -1.241479  0  -0.327658  -0.23705  0  3.53879  0
N  N293  1  0.32580539  0.83822887  0.19577035  1  -1.24158  0  -0.327677  -0.237092  0  3.538761  0
