# generated using pymatgen
data_CdH16C22N2O5
_symmetry_space_group_name_H-M   'P 1'
_cell_length_a   8.80047781
_cell_length_b   11.14379768
_cell_length_c   12.58762265
_cell_angle_alpha   111.39233920
_cell_angle_beta   109.75989979
_cell_angle_gamma   94.61661318
_symmetry_Int_Tables_number   1
_chemical_formula_structural   CdH16C22N2O5
_chemical_formula_sum   'Cd2 H32 C44 N4 O10'
_cell_volume   1052.08273051
_cell_formula_units_Z   2
loop_
 _symmetry_equiv_pos_site_id
 _symmetry_equiv_pos_as_xyz
  1  'x, y, z'
loop_
 _atom_site_type_symbol
 _atom_site_label
 _atom_site_symmetry_multiplicity
 _atom_site_fract_x
 _atom_site_fract_y
 _atom_site_fract_z
 _atom_site_occupancy
 _atom_site_hle17_bader_spin_density
 _atom_site_hle17_ddec_charge
 _atom_site_hle17_ddec_spin_density
 _atom_site_hle17_ddec_sum_bond_order
 _atom_site_hle17_magmom
 _atom_site_hse06_10hf_bader_spin_density
 _atom_site_hse06_10hf_ddec_charge
 _atom_site_hse06_10hf_ddec_spin_density
 _atom_site_hse06_10hf_ddec_sum_bond_order
 _atom_site_hse06_10hf_magmom
 _atom_site_hse06_bader_spin_density
 _atom_site_hse06_ddec_charge
 _atom_site_hse06_ddec_spin_density
 _atom_site_hse06_ddec_sum_bond_order
 _atom_site_hse06_magmom
 _atom_site_pbe_bader_spin_density
 _atom_site_pbe_cm5_charge
 _atom_site_pbe_ddec_charge
 _atom_site_pbe_ddec_spin_density
 _atom_site_pbe_ddec_sum_bond_order
 _atom_site_pbe_magmom
Cd  Cd0  1  0.11223683  0.37692884  0.53259811  1  0  1.11946  0  1.681813  0  0  0.920599  0  2.132405  0  0  0.981253  0  2.079918  0  0  0.766943  0.877438  0  2.168266  0
Cd  Cd1  1  0.88775868  0.62307521  0.46740493  1  0  1.11948  0  1.68183  0  0  0.920596  0  2.132457  0  0  0.981251  0  2.079968  0  0  0.766955  0.877437  0  2.168319  0
H  H2  1  0.68364620  0.23630775  0.64214435  1  0  0.080333  0  0.990469  0  0  0.091487  0  1.055103  0  0  0.093468  0  1.05537  0  0  0.091597  0.090008  0  1.055138  0
H  H3  1  0.31634969  0.76369327  0.35785147  1  0  0.080322  0  0.99047  0  0  0.091466  0  1.055113  0  0  0.093454  0  1.055371  0  0  0.091598  0.089987  0  1.055148  0
H  H4  1  0.77735082  0.17090754  0.81951537  1  0  0.105445  0  0.954665  0  0  0.117348  0  1.01305  0  0  0.120664  0  1.011829  0  0  0.0999  0.114941  0  1.014027  0
H  H5  1  0.22265052  0.82909147  0.18048033  1  0  0.105449  0  0.954658  0  0  0.117363  0  1.01304  0  0  0.120676  0  1.011822  0  0  0.099922  0.115006  0  1.013959  0
H  H6  1  0.81873106  0.57016147  0.06948690  1  0  0.093049  0  1.003686  0  0  0.102357  0  1.069828  0  0  0.104539  0  1.070805  0  0  0.094407  0.100822  0  1.06924  0
H  H7  1  0.18127746  0.42984152  0.93051496  1  0  0.093062  0  1.003673  0  0  0.102358  0  1.069829  0  0  0.104541  0  1.070806  0  0  0.094404  0.100834  0  1.069232  0
H  H8  1  0.72816426  0.63297184  0.89390990  1  0  0.096979  0  0.934005  0  0  0.110124  0  0.988701  0  0  0.113437  0  0.98649  0  0  0.102513  0.107697  0  0.990433  0
H  H9  1  0.27183342  0.36702723  0.10609050  1  0  0.096991  0  0.933962  0  0  0.110123  0  0.988672  0  0  0.113436  0  0.98646  0  0  0.102503  0.107694  0  0.990405  0
H  H10  1  0.66733102  0.41612882  0.57058570  1  0  0.111549  0  0.932639  0  0  0.124055  0  0.99577  0  0  0.126214  0  0.995174  0  0  0.096453  0.122552  0  0.996219  0
H  H11  1  0.33266605  0.58387223  0.42941439  1  0  0.111514  0  0.93264  0  0  0.124031  0  0.995777  0  0  0.12619  0  0.995179  0  0  0.096451  0.122528  0  0.996225  0
H  H12  1  0.68506197  0.58137149  0.67448717  1  0  0.124871  0  0.924155  0  0  0.139033  0  0.98004  0  0  0.141436  0  0.978976  0  0  0.104163  0.137347  0  0.980791  0
H  H13  1  0.31493149  0.41862955  0.32550966  1  0  0.124846  0  0.924084  0  0  0.139002  0  0.979988  0  0  0.141402  0  0.978929  0  0  0.104147  0.137315  0  0.980739  0
H  H14  1  0.77186848  0.44464294  0.17811764  1  0  0.08338  0  0.933129  0  0  0.093731  0  0.999561  0  0  0.095467  0  0.997567  0  0  0.105407  0.092468  0  1.001135  0
H  H15  1  0.22813976  0.55535904  0.82188225  1  0  0.083391  0  0.933149  0  0  0.093716  0  0.999588  0  0  0.095448  0  0.997591  0  0  0.105407  0.092453  0  1.001161  0
H  H16  1  0.97769375  0.50338562  0.19530215  1  0  0.081807  0  0.950467  0  0  0.090949  0  1.018925  0  0  0.091769  0  1.019606  0  0  0.104439  0.090399  0  1.018559  0
H  H17  1  0.02231111  0.49662135  0.80470088  1  0  0.081783  0  0.950484  0  0  0.090903  0  1.018984  0  0  0.091726  0  1.019648  0  0  0.1044  0.090352  0  1.018619  0
H  H18  1  0.41210332  0.38158981  0.79064276  1  0  0.080028  0  0.959195  0  0  0.086057  0  1.027399  0  0  0.087536  0  1.027152  0  0  0.115867  0.084854  0  1.027775  0
H  H19  1  0.58789779  0.61840029  0.20935166  1  0  0.080119  0  0.959151  0  0  0.086138  0  1.027351  0  0  0.087621  0  1.027104  0  0  0.115885  0.084933  0  1.027729  0
H  H20  1  0.46055855  0.25757792  0.92479302  1  0  0.113858  0  0.933826  0  0  0.126865  0  0.984079  0  0  0.129716  0  0.984078  0  0  0.114151  0.124714  0  0.98436  0
H  H21  1  0.53944076  0.74241021  0.07520114  1  0  0.113827  0  0.933752  0  0  0.126836  0  0.984021  0  0  0.12969  0  0.984018  0  0  0.114118  0.124682  0  0.984304  0
H  H22  1  0.23035222  0.07001073  0.87525364  1  0  0.113988  0  0.910709  0  0  0.12979  0  0.957907  0  0  0.132625  0  0.956358  0  0  0.121956  0.127684  0  0.959101  0
H  H23  1  0.76964069  0.92998437  0.12474197  1  0  0.113983  0  0.910751  0  0  0.129783  0  0.957937  0  0  0.132622  0  0.95639  0  0  0.121953  0.127681  0  0.959123  0
H  H24  1  0.51412471  0.92493669  0.37787567  1  0  0.098525  0  0.960569  0  0  0.109591  0  1.024109  0  0  0.111681  0  1.02353  0  0  0.107864  0.108088  0  1.024519  0
H  H25  1  0.48587178  0.07506236  0.62212205  1  0  0.098537  0  0.960599  0  0  0.109594  0  1.024148  0  0  0.111685  0  1.023568  0  0  0.107875  0.108092  0  1.024558  0
H  H26  1  0.48267345  0.07540898  0.26790153  1  0  0.114212  0  0.920434  0  0  0.130608  0  0.964485  0  0  0.133668  0  0.964093  0  0  0.119327  0.1284  0  0.964939  0
H  H27  1  0.51732694  0.92459105  0.73209824  1  0  0.114212  0  0.920436  0  0  0.130609  0  0.964488  0  0  0.133669  0  0.964097  0  0  0.119327  0.128402  0  0.964943  0
H  H28  1  0.72309268  0.26243313  0.33828648  1  0  0.095907  0  0.936436  0  0  0.1043  0  0.997933  0  0  0.106995  0  0.995294  0  0  0.122655  0.102239  0  0.999969  0
H  H29  1  0.27690558  0.73756792  0.66171469  1  0  0.095904  0  0.936419  0  0  0.104282  0  0.997931  0  0  0.106976  0  0.995291  0  0  0.122634  0.102222  0  0.999968  0
H  H30  1  0.94720078  0.92581020  0.73378863  1  0  0.129375  0  0.960346  0  0  0.140469  0  1.017449  0  0  0.14436  0  1.014667  0  0  0.111979  0.137684  0  1.019467  0
H  H31  1  0.05279090  0.07418492  0.26620908  1  0  0.129413  0  0.960323  0  0  0.140481  0  1.017449  0  0  0.144373  0  1.014667  0  0  0.111975  0.137692  0  1.019466  0
H  H32  1  0.68688804  0.87184559  0.55181341  1  0  0.120483  0  0.971461  0  0  0.12815  0  1.035189  0  0  0.131995  0  1.033322  0  0  0.105544  0.125326  0  1.036647  0
H  H33  1  0.31310633  0.12815447  0.44818492  1  0  0.120456  0  0.971471  0  0  0.128096  0  1.035242  0  0  0.131941  0  1.033373  0  0  0.105543  0.125273  0  1.036697  0
C  C34  1  0.70000351  0.43941735  0.75531546  1  0  0.08883  0  3.771635  0  0  0.107879  0  4.012225  0  0  0.106886  0  4.035947  0  0  -0.023482  0.108346  0  3.996288  0
C  C35  1  0.29999838  0.56058369  0.24468578  1  0  0.088675  0  3.771752  0  0  0.107749  0  4.012313  0  0  0.106758  0  4.036035  0  0  -0.023538  0.108215  0  3.996375  0
C  C36  1  0.71395126  0.30931707  0.73639435  1  0  -0.120051  0  3.783174  0  0  -0.141404  0  4.038615  0  0  -0.141627  0  4.058937  0  0  -0.10434  -0.141025  0  4.024784  0
C  C37  1  0.28605063  0.69068396  0.26360689  1  0  -0.120018  0  3.783151  0  0  -0.141371  0  4.038597  0  0  -0.141599  0  4.058913  0  0  -0.104366  -0.140995  0  4.024784  0
C  C38  1  0.76448554  0.27164697  0.83452528  1  0  -0.1912  0  3.775372  0  0  -0.213476  0  4.033373  0  0  -0.218419  0  4.052427  0  0  -0.113275  -0.210006  0  4.0204  0
C  C39  1  0.23551515  0.72835407  0.16547567  1  0  -0.191194  0  3.775333  0  0  -0.213473  0  4.033368  0  0  -0.218414  0  4.052426  0  0  -0.113299  -0.210045  0  4.020383  0
C  C40  1  0.80135102  0.36486542  0.95578710  1  0  0.263034  0  3.831053  0  0  0.255544  0  4.089421  0  0  0.266386  0  4.105862  0  0  0.076389  0.248118  0  4.078051  0
C  C41  1  0.19865748  0.63513758  0.04421635  1  0  0.263047  0  3.83094  0  0  0.255491  0  4.089362  0  0  0.266334  0  4.105804  0  0  0.076391  0.248062  0  4.078008  0
C  C42  1  0.78793515  0.49528783  0.97639744  1  0  -0.211505  0  3.792843  0  0  -0.229916  0  4.04429  0  0  -0.236242  0  4.066591  0  0  -0.11737  -0.225569  0  4.029176  0
C  C43  1  0.21207215  0.50471518  0.02360652  1  0  -0.211525  0  3.792847  0  0  -0.229906  0  4.044296  0  0  -0.236234  0  4.066599  0  0  -0.117344  -0.225569  0  4.029174  0
C  C44  1  0.73771770  0.53114632  0.87670138  1  0  -0.089141  0  3.753093  0  0  -0.110812  0  4.004194  0  0  -0.110174  0  4.022763  0  0  -0.092603  -0.111149  0  3.99169  0
C  C45  1  0.26228687  0.46885573  0.12330401  1  0  -0.089105  0  3.753102  0  0  -0.110768  0  4.004178  0  0  -0.110131  0  4.022747  0  0  -0.092579  -0.111104  0  3.991674  0
C  C46  1  0.63495229  0.47635526  0.64699497  1  0  -0.302483  0  3.689444  0  0  -0.345409  0  3.928646  0  0  -0.351095  0  3.936164  0  0  -0.165584  -0.341535  0  3.923611  0
C  C47  1  0.36504415  0.52364777  0.35300480  1  0  -0.302303  0  3.689313  0  0  -0.345255  0  3.928549  0  0  -0.35094  0  3.936068  0  0  -0.165535  -0.341382  0  3.923512  0
C  C48  1  0.44676372  0.45067528  0.60288074  1  0  0.689659  0  3.865803  0  0  0.648389  0  4.157125  0  0  0.68121  0  4.153014  0  0  0.191991  0.626161  0  4.158889  0
C  C49  1  0.55323606  0.54932281  0.39712144  1  0  0.689422  0  3.865865  0  0  0.648125  0  4.157248  0  0  0.680945  0  4.153143  0  0  0.191908  0.625899  0  4.159005  0
C  C50  1  0.88518425  0.41419205  0.16993286  1  0  -0.071045  0  3.64687  0  0  -0.127015  0  3.908608  0  0  -0.123759  0  3.909683  0  0  -0.073335  -0.129486  0  3.908009  0
C  C51  1  0.11482638  0.58580994  0.83006920  1  0  -0.071029  0  3.64708  0  0  -0.126965  0  3.90868  0  0  -0.123689  0  3.909736  0  0  -0.073292  -0.129441  0  3.908091  0
C  C52  1  0.95585835  0.35669361  0.26376610  1  0  0.676992  0  3.87524  0  0  0.626658  0  4.178691  0  0  0.659634  0  4.17198  0  0  0.2021  0.604057  0  4.182758  0
C  C53  1  0.04414685  0.64331036  0.73623448  1  0  0.677074  0  3.875134  0  0  0.626789  0  4.178456  0  0  0.659759  0  4.171747  0  0  0.202167  0.604188  0  4.182522  0
C  C54  1  0.31507077  0.30021593  0.77198302  1  0  0.143034  0  3.700366  0  0  0.110366  0  3.960678  0  0  0.118941  0  3.977651  0  0  0.057434  0.104728  0  3.949224  0
C  C55  1  0.68492880  0.69977716  0.22801277  1  0  0.142903  0  3.700472  0  0  0.110251  0  3.960791  0  0  0.11882  0  3.977772  0  0  0.057442  0.104614  0  3.949333  0
C  C56  1  0.34132618  0.23018980  0.84721041  1  0  -0.113894  0  3.732078  0  0  -0.127  0  3.987511  0  0  -0.133956  0  4.008541  0  0  -0.078206  -0.122508  0  3.973466  0
C  C57  1  0.65867217  0.76980329  0.15278508  1  0  -0.113774  0  3.732017  0  0  -0.126892  0  3.987451  0  0  -0.133852  0  4.008489  0  0  -0.078155  -0.122395  0  3.973394  0
C  C58  1  0.21504694  0.12762393  0.81996095  1  0  -0.041916  0  3.670773  0  0  -0.066893  0  3.916007  0  0  -0.064457  0  3.933896  0  0  -0.054978  -0.068277  0  3.903799  0
C  C59  1  0.78494832  0.87237516  0.18003966  1  0  -0.042059  0  3.670838  0  0  -0.067033  0  3.916029  0  0  -0.064607  0  3.933922  0  0  -0.055049  -0.068419  0  3.903818  0
C  C60  1  0.06331181  0.09448851  0.71712384  1  0  0.034543  0  3.776148  0  0  0.050574  0  4.010592  0  0  0.048305  0  4.03542  0  0  0.001669  0.051874  0  3.994019  0
C  C61  1  0.93668345  0.90551057  0.28287598  1  0  0.034682  0  3.776127  0  0  0.050781  0  4.010481  0  0  0.048527  0  4.035283  0  0  0.001704  0.052078  0  3.99391  0
C  C62  1  0.04767715  0.17140052  0.64683307  1  0  0.127928  0  3.753618  0  0  0.120269  0  3.993508  0  0  0.124298  0  4.016373  0  0  0.116377  0.117447  0  3.978166  0
C  C63  1  0.95231961  0.82859955  0.35316743  1  0  0.127917  0  3.753609  0  0  0.12018  0  3.993557  0  0  0.124209  0  4.016415  0  0  0.116353  0.117357  0  3.978216  0
C  C64  1  0.89369318  0.14139203  0.54133389  1  0  0.125041  0  3.760212  0  0  0.117621  0  3.999652  0  0  0.122078  0  4.022179  0  0  0.116411  0.114698  0  3.984427  0
C  C65  1  0.10630237  0.85860805  0.45866712  1  0  0.124959  0  3.760343  0  0  0.117641  0  3.999674  0  0  0.122095  0  4.022201  0  0  0.116359  0.114718  0  3.98445  0
C  C66  1  0.76364913  0.03370762  0.50904554  1  0  0.021209  0  3.795243  0  0  0.036656  0  4.029994  0  0  0.034425  0  4.053691  0  0  -0.003349  0.03808  0  4.013889  0
C  C67  1  0.23634735  0.96629144  0.49095378  1  0  0.021133  0  3.795298  0  0  0.036491  0  4.030122  0  0  0.03426  0  4.05382  0  0  -0.00338  0.037915  0  4.014017  0
C  C68  1  0.61446555  0.00874253  0.40675324  1  0  -0.049193  0  3.690228  0  0  -0.075708  0  3.944293  0  0  -0.073333  0  3.962986  0  0  -0.062749  -0.07706  0  3.931545  0
C  C69  1  0.38553276  0.99125455  0.59324510  1  0  -0.049136  0  3.690274  0  0  -0.075616  0  3.944344  0  0  -0.073241  0  3.963039  0  0  -0.062722  -0.076967  0  3.931598  0
C  C70  1  0.59753804  0.09054517  0.34530417  1  0  -0.10724  0  3.719229  0  0  -0.121343  0  3.97434  0  0  -0.127531  0  3.993568  0  0  -0.074335  -0.1174  0  3.9614  0
C  C71  1  0.40246206  0.90945387  0.65469522  1  0  -0.10725  0  3.719314  0  0  -0.121373  0  3.974415  0  0  -0.127563  0  3.993644  0  0  -0.074329  -0.11743  0  3.961477  0
C  C72  1  0.73224854  0.19496359  0.38361231  1  0  0.160513  0  3.666103  0  0  0.125423  0  3.924295  0  0  0.134711  0  3.939832  0  0  0.066086  0.1194  0  3.913593  0
C  C73  1  0.26775001  0.80503846  0.61638925  1  0  0.160558  0  3.666135  0  0  0.125484  0  3.924297  0  0  0.134774  0  3.939834  0  0  0.066119  0.119461  0  3.913595  0
C  C74  1  0.92965888  0.98679323  0.68158450  1  0  -0.098341  0  3.708186  0  0  -0.122007  0  3.960715  0  0  -0.125168  0  3.982383  0  0  -0.080729  -0.120013  0  3.946251  0
C  C75  1  0.07033461  0.01320385  0.31841267  1  0  -0.09843  0  3.708089  0  0  -0.122091  0  3.960595  0  0  -0.125257  0  3.982258  0  0  -0.080721  -0.120092  0  3.946131  0
C  C76  1  0.78570755  0.95694678  0.58054788  1  0  -0.108095  0  3.719855  0  0  -0.131413  0  3.979001  0  0  -0.13564  0  4.001856  0  0  -0.086931  -0.128267  0  3.963485  0
C  C77  1  0.21428923  0.04305327  0.41945103  1  0  -0.107976  0  3.719688  0  0  -0.131269  0  3.978876  0  0  -0.135493  0  4.001732  0  0  -0.086906  -0.128123  0  3.96336  0
N  N78  1  0.17242945  0.27230394  0.67573459  1  0  -0.365013  0  3.249254  0  0  -0.297116  0  3.515277  0  0  -0.316372  0  3.533928  0  0  -0.320696  -0.283994  0  3.502359  0
N  N79  1  0.82756914  0.72769414  0.32426572  1  0  -0.364972  0  3.249245  0  0  -0.297093  0  3.515301  0  0  -0.316349  0  3.533952  0  0  -0.32068  -0.283973  0  3.502386  0
N  N80  1  0.87603966  0.21777300  0.47724084  1  0  -0.357667  0  3.262341  0  0  -0.286302  0  3.531992  0  0  -0.306736  0  3.550758  0  0  -0.322177  -0.27232  0  3.518938  0
N  N81  1  0.12395767  0.78222906  0.52276281  1  0  -0.357704  0  3.262442  0  0  -0.286323  0  3.532008  0  0  -0.306755  0  3.55077  0  0  -0.322171  -0.272344  0  3.518963  0
O  O82  1  0.38236433  0.53349561  0.66372081  1  0  -0.664088  0  1.8941  0  0  -0.606422  0  2.12515  0  0  -0.634552  0  2.116045  0  0  -0.348139  -0.586525  0  2.130531  0
O  O83  1  0.61763546  0.46650248  0.33628138  1  0  -0.664039  0  1.894189  0  0  -0.606338  0  2.125225  0  0  -0.634467  0  2.116121  0  0  -0.348117  -0.586438  0  2.130595  0
O  O84  1  0.35970469  0.34193326  0.50945070  1  0  -0.652904  0  1.942122  0  0  -0.585542  0  2.178958  0  0  -0.615273  0  2.170389  0  0  -0.335801  -0.564552  0  2.18383  0
O  O85  1  0.64029174  0.65806586  0.49055498  1  0  -0.652758  0  1.941984  0  0  -0.585405  0  2.178849  0  0  -0.615133  0  2.170279  0  0  -0.335747  -0.564417  0  2.18372  0
O  O86  1  0.84936738  0.31994187  0.04692615  1  0  -0.258403  0  2.336618  0  0  -0.192326  0  2.566959  0  0  -0.208351  0  2.566981  0  0  -0.184239  -0.180869  0  2.566468  0
O  O87  1  0.15064600  0.68006106  0.95307290  1  0  -0.258418  0  2.336582  0  0  -0.19231  0  2.566905  0  0  -0.208348  0  2.566929  0  0  -0.184257  -0.18085  0  2.566415  0
O  O88  1  0.99482211  0.44293485  0.37783771  1  0  -0.704889  0  2.091651  0  0  -0.613468  0  2.370568  0  0  -0.648733  0  2.357091  0  0  -0.351043  -0.588597  0  2.378891  0
O  O89  1  0.00518423  0.55707705  0.62216486  1  0  -0.70493  0  2.091771  0  0  -0.613462  0  2.370601  0  0  -0.648725  0  2.357124  0  0  -0.350985  -0.58859  0  2.378924  0
O  O90  1  0.97449555  0.24195531  0.23383614  1  0  -0.586974  0  1.896003  0  0  -0.551316  0  2.112558  0  0  -0.572275  0  2.102542  0  0  -0.320262  -0.536414  0  2.118811  0
O  O91  1  0.02550472  0.75805273  0.76617408  1  0  -0.587031  0  1.895914  0  0  -0.551424  0  2.112452  0  0  -0.572388  0  2.102445  0  0  -0.320364  -0.536521  0  2.118707  0
