# generated using pymatgen
data_CuH8C6IN2
_symmetry_space_group_name_H-M   'P 1'
_cell_length_a   10.91883410
_cell_length_b   11.75482452
_cell_length_c   12.45620000
_cell_angle_alpha   90.00000000
_cell_angle_beta   91.03673290
_cell_angle_gamma   90.00000000
_symmetry_Int_Tables_number   1
_chemical_formula_structural   CuH8C6IN2
_chemical_formula_sum   'Cu8 H64 C48 I8 N16'
_cell_volume   1598.47883724
_cell_formula_units_Z   8
loop_
 _symmetry_equiv_pos_site_id
 _symmetry_equiv_pos_as_xyz
  1  'x, y, z'
loop_
 _atom_site_type_symbol
 _atom_site_label
 _atom_site_symmetry_multiplicity
 _atom_site_fract_x
 _atom_site_fract_y
 _atom_site_fract_z
 _atom_site_occupancy
 _atom_site_hle17_bader_spin_density
 _atom_site_hle17_ddec_charge
 _atom_site_hle17_ddec_spin_density
 _atom_site_hle17_ddec_sum_bond_order
 _atom_site_hle17_magmom
 _atom_site_hse06_10hf_bader_spin_density
 _atom_site_hse06_10hf_ddec_charge
 _atom_site_hse06_10hf_ddec_spin_density
 _atom_site_hse06_10hf_ddec_sum_bond_order
 _atom_site_hse06_10hf_magmom
 _atom_site_hse06_bader_spin_density
 _atom_site_hse06_ddec_charge
 _atom_site_hse06_ddec_spin_density
 _atom_site_hse06_ddec_sum_bond_order
 _atom_site_hse06_magmom
 _atom_site_pbe_bader_charge
 _atom_site_pbe_bader_spin_density
 _atom_site_pbe_cm5_charge
 _atom_site_pbe_ddec_charge
 _atom_site_pbe_ddec_spin_density
 _atom_site_pbe_ddec_sum_bond_order
 _atom_site_pbe_magmom
Cu  Cu0  1  0.86649991  0.27242176  0.35252122  1  0  0.325427  0  2.054088  0  0  0.22608  0  2.524415  0  0  0.228128  0  2.477626  0  0.538687  0  0.379448  0.228471  0  2.552542  0
Cu  Cu1  1  0.36649747  0.22757890  0.85252283  1  0  0.32541  0  2.054099  0  0  0.226057  0  2.524425  0  0  0.228107  0  2.477632  0  0.538716  0  0.379452  0.228458  0  2.552553  0
Cu  Cu2  1  0.13349947  0.72757785  0.64747708  1  0  0.325447  0  2.05406  0  0  0.22607  0  2.524397  0  0  0.228125  0  2.477597  0  0.53876  0  0.379453  0.228469  0  2.552531  0
Cu  Cu3  1  0.63349917  0.77242157  0.14747784  1  0  0.325439  0  2.054068  0  0  0.226089  0  2.524394  0  0  0.228153  0  2.477604  0  0.538702  0  0.379456  0.228496  0  2.552524  0
Cu  Cu4  1  0.11178115  0.22274259  0.34924322  1  0  0.312109  0  2.088368  0  0  0.216932  0  2.552978  0  0  0.218349  0  2.507658  0  0.5317  0  0.374766  0.220294  0  2.579626  0
Cu  Cu5  1  0.61178267  0.27725552  0.84924240  1  0  0.312107  0  2.088323  0  0  0.216985  0  2.552868  0  0  0.218352  0  2.507611  0  0.531714  0  0.374772  0.220331  0  2.579518  0
Cu  Cu6  1  0.88821641  0.77725448  0.65075747  1  0  0.312122  0  2.088261  0  0  0.216965  0  2.55285  0  0  0.218386  0  2.50755  0  0.531551  0  0.37478  0.220332  0  2.579501  0
Cu  Cu7  1  0.38821671  0.72274409  0.15075671  1  0  0.312076  0  2.088369  0  0  0.216922  0  2.552939  0  0  0.218328  0  2.507661  0  0.531708  0  0.374756  0.220287  0  2.579589  0
H  H8  1  0.62424667  0.43505031  0.66561195  1  0  0.081753  0  0.997479  0  0  0.088718  0  1.067325  0  0  0.092417  0  1.064366  0  0.091  0  0.098818  0.085838  0  1.07006  0
H  H9  1  0.12424789  0.06494695  0.16561120  1  0  0.081741  0  0.997448  0  0  0.088701  0  1.067308  0  0  0.092397  0  1.064352  0  0.090906  0  0.098805  0.08582  0  1.070046  0
H  H10  1  0.37575272  0.56494931  0.33438876  1  0  0.081747  0  0.997441  0  0  0.0887  0  1.067308  0  0  0.092399  0  1.064348  0  0.09096  0  0.098838  0.085819  0  1.070046  0
H  H11  1  0.87575425  0.93505011  0.83438875  1  0  0.081783  0  0.997463  0  0  0.088725  0  1.067342  0  0  0.092425  0  1.064381  0  0.090973  0  0.09881  0.085843  0  1.070083  0
H  H12  1  0.79360382  0.12614565  0.73170097  1  0  0.083659  0  0.956224  0  0  0.08917  0  1.027892  0  0  0.092874  0  1.024804  0  0.082717  0  0.107265  0.086174  0  1.03076  0
H  H13  1  0.29359589  0.37385501  0.23170570  1  0  0.083615  0  0.956223  0  0  0.089144  0  1.027884  0  0  0.092845  0  1.024801  0  0.082722  0  0.107262  0.08615  0  1.03075  0
H  H14  1  0.20640106  0.87385567  0.26829582  1  0  0.083657  0  0.956205  0  0  0.089187  0  1.027849  0  0  0.092889  0  1.024765  0  0.082724  0  0.107293  0.086192  0  1.030718  0
H  H15  1  0.70639617  0.62614631  0.76829811  1  0  0.083684  0  0.956182  0  0  0.089194  0  1.027845  0  0  0.092899  0  1.024759  0  0.082734  0  0.107265  0.086199  0  1.030714  0
H  H16  1  0.87852423  0.12291464  0.54628461  1  0  0.085604  0  0.982342  0  0  0.089686  0  1.054246  0  0  0.093361  0  1.052014  0  0.137604  0  0.097473  0.086787  0  1.056373  0
H  H17  1  0.37851995  0.37708942  0.04628699  1  0  0.085561  0  0.982378  0  0  0.089654  0  1.05427  0  0  0.09333  0  1.052039  0  0.137646  0  0.097473  0.086754  0  1.056394  0
H  H18  1  0.12147882  0.87708838  0.45371455  1  0  0.085567  0  0.982365  0  0  0.089665  0  1.054248  0  0  0.093339  0  1.052018  0  0.13763  0  0.097481  0.086765  0  1.056373  0
H  H19  1  0.62147669  0.62291445  0.95371528  1  0  0.085568  0  0.982382  0  0  0.089645  0  1.054282  0  0  0.09332  0  1.05205  0  0.137622  0  0.097468  0.086743  0  1.056404  0
H  H20  1  0.63883852  0.42289274  0.39066877  1  0  0.082651  0  0.934046  0  0  0.099107  0  0.999517  0  0  0.100876  0  0.998488  0  0.050154  0  0.088445  0.097752  0  1.00028  0
H  H21  1  0.13883791  0.07710876  0.89066800  1  0  0.08269  0  0.934042  0  0  0.099135  0  0.999524  0  0  0.100907  0  0.998492  0  0.05012  0  0.088445  0.097782  0  1.000284  0
H  H22  1  0.36116269  0.57710602  0.60933117  1  0  0.082698  0  0.934036  0  0  0.099159  0  0.999514  0  0  0.10093  0  0.998475  0  0.050128  0  0.088459  0.097808  0  1.000271  0
H  H23  1  0.86116330  0.92289425  0.10933194  1  0  0.082693  0  0.934027  0  0  0.099155  0  0.999514  0  0  0.100928  0  0.99847  0  0.050122  0  0.088454  0.097802  0  1.000274  0
H  H24  1  0.78495680  0.47833891  0.41453937  1  0  0.082344  0  0.968673  0  0  0.094728  0  1.042057  0  0  0.097671  0  1.040001  0  0.064666  0  0.081101  0.092526  0  1.043519  0
H  H25  1  0.28495527  0.02166259  0.91453938  1  0  0.082335  0  0.968736  0  0  0.094732  0  1.042091  0  0  0.097676  0  1.040043  0  0.064691  0  0.081091  0.092529  0  1.043554  0
H  H26  1  0.21504534  0.52165985  0.58546059  1  0  0.082316  0  0.968697  0  0  0.094704  0  1.042088  0  0  0.097647  0  1.040033  0  0.064661  0  0.081073  0.092501  0  1.04355  0
H  H27  1  0.71504595  0.97834127  0.08546055  1  0  0.082308  0  0.96872  0  0  0.0947  0  1.042111  0  0  0.09764  0  1.040059  0  0.064653  0  0.081065  0.092497  0  1.043573  0
H  H28  1  0.62139791  0.62511014  0.43595260  1  0  0.099787  0  0.963296  0  0  0.119817  0  1.026321  0  0  0.120277  0  1.029206  0  0.03596  0  0.080443  0.119307  0  1.024651  0
H  H29  1  0.12139730  0.87489013  0.93595102  1  0  0.099796  0  0.963263  0  0  0.119796  0  1.026323  0  0  0.120251  0  1.029213  0  0.035935  0  0.080437  0.119286  0  1.024655  0
H  H30  1  0.37860514  0.37488777  0.56404737  1  0  0.099792  0  0.963283  0  0  0.119801  0  1.026349  0  0  0.120259  0  1.029235  0  0.035929  0  0.080424  0.119291  0  1.024682  0
H  H31  1  0.87860575  0.12511288  0.06404734  1  0  0.099791  0  0.963261  0  0  0.119802  0  1.026323  0  0  0.12026  0  1.02921  0  0.035953  0  0.080425  0.119292  0  1.024654  0
H  H32  1  0.70829870  0.60678745  0.55737551  1  0  0.085429  0  0.999258  0  0  0.100558  0  1.075925  0  0  0.102556  0  1.075326  0  0.057677  0  0.071193  0.098948  0  1.076364  0
H  H33  1  0.20829809  0.89321367  0.05737393  1  0  0.085405  0  0.999272  0  0  0.100519  0  1.075946  0  0  0.102513  0  1.075354  0  0.05772  0  0.071205  0.098928  0  1.076371  0
H  H34  1  0.29170343  0.39321131  0.44262445  1  0  0.085453  0  0.999221  0  0  0.10055  0  1.075922  0  0  0.102543  0  1.075331  0  0.057698  0  0.071193  0.098957  0  1.076348  0
H  H35  1  0.79170313  0.10678849  0.94262360  1  0  0.085452  0  0.999212  0  0  0.100555  0  1.075921  0  0  0.102552  0  1.075325  0  0.057608  0  0.071193  0.098953  0  1.076355  0
H  H36  1  0.55836621  0.54966027  0.54461877  1  0  0.087864  0  0.987443  0  0  0.112016  0  1.047467  0  0  0.112549  0  1.048633  0  0.01704  0  0.081596  0.111523  0  1.046735  0
H  H37  1  0.05836469  0.95033830  0.04461718  1  0  0.087829  0  0.987452  0  0  0.111986  0  1.047468  0  0  0.112517  0  1.04864  0  0.017437  0  0.081567  0.111493  0  1.046738  0
H  H38  1  0.44163776  0.45033850  0.45538122  1  0  0.087765  0  0.987534  0  0  0.112019  0  1.047433  0  0  0.112554  0  1.048597  0  0.017372  0  0.081605  0.111525  0  1.046703  0
H  H39  1  0.94163836  0.04966216  0.95538038  1  0  0.087751  0  0.987548  0  0  0.112007  0  1.047447  0  0  0.112539  0  1.048617  0  0.017353  0  0.081597  0.111513  0  1.046715  0
H  H40  1  0.89820079  0.41151954  0.15535698  1  0  0.081117  0  0.987639  0  0  0.088727  0  1.05542  0  0  0.092032  0  1.053177  0  0.123553  0  0.09913  0.086171  0  1.057542  0
H  H41  1  0.39820110  0.08848197  0.65535783  1  0  0.081113  0  0.987629  0  0  0.088735  0  1.055406  0  0  0.092039  0  1.053161  0  0.123585  0  0.099139  0.086178  0  1.057529  0
H  H42  1  0.10179585  0.58848092  0.84464128  1  0  0.081094  0  0.987632  0  0  0.088706  0  1.055418  0  0  0.092011  0  1.053176  0  0.123552  0  0.099122  0.08615  0  1.05754  0
H  H43  1  0.60179737  0.91151765  0.34464206  1  0  0.08111  0  0.987624  0  0  0.088735  0  1.055404  0  0  0.09204  0  1.053162  0  0.123576  0  0.099147  0.086179  0  1.057526  0
H  H44  1  0.63767246  0.17496731  0.24656620  1  0  0.085301  0  0.953163  0  0  0.091925  0  1.022425  0  0  0.095418  0  1.019398  0  0.119771  0  0.111962  0.089298  0  1.024834  0
H  H45  1  0.13767185  0.32503505  0.74656623  1  0  0.085317  0  0.953181  0  0  0.091942  0  1.022432  0  0  0.095436  0  1.019404  0  0.119759  0  0.111952  0.089313  0  1.024844  0
H  H46  1  0.36232876  0.82503316  0.75343374  1  0  0.085314  0  0.953185  0  0  0.091921  0  1.02246  0  0  0.095414  0  1.019437  0  0.119769  0  0.111955  0.089293  0  1.024871  0
H  H47  1  0.86232845  0.67496456  0.25343289  1  0  0.085302  0  0.953192  0  0  0.091886  0  1.022465  0  0  0.095379  0  1.01944  0  0.119774  0  0.111942  0.089257  0  1.024879  0
H  H48  1  0.54894425  0.17502431  0.06008806  1  0  0.082643  0  0.980183  0  0  0.084848  0  1.05401  0  0  0.088183  0  1.051874  0  0.126562  0  0.100027  0.082147  0  1.056188  0
H  H49  1  0.04894456  0.32497720  0.56008810  1  0  0.08265  0  0.980161  0  0  0.084843  0  1.053994  0  0  0.088181  0  1.051853  0  0.126552  0  0.10003  0.08214  0  1.056174  0
H  H50  1  0.45105422  0.82497446  0.93991184  1  0  0.082644  0  0.980212  0  0  0.084856  0  1.054021  0  0  0.088193  0  1.051881  0  0.126581  0  0.10003  0.082151  0  1.056207  0
H  H51  1  0.95105666  0.67502411  0.43991184  1  0  0.082638  0  0.980194  0  0  0.084829  0  1.054036  0  0  0.088166  0  1.051895  0  0.126562  0  0.100018  0.082127  0  1.056212  0
H  H52  1  0.77482860  0.43531828  0.87424370  1  0  0.081903  0  0.953278  0  0  0.091784  0  1.030036  0  0  0.095019  0  1.026909  0  0.075784  0  0.087065  0.089396  0  1.032146  0
H  H53  1  0.27483074  0.06468408  0.37424297  1  0  0.081944  0  0.953258  0  0  0.091825  0  1.030007  0  0  0.095047  0  1.02691  0  0.075818  0  0.087074  0.08944  0  1.032106  0
H  H54  1  0.22516987  0.56468219  0.12575539  1  0  0.081921  0  0.953181  0  0  0.091799  0  1.029936  0  0  0.095033  0  1.02681  0  0.075819  0  0.087063  0.089408  0  1.032053  0
H  H55  1  0.72517140  0.93531639  0.62575538  1  0  0.081889  0  0.953292  0  0  0.091788  0  1.030041  0  0  0.095013  0  1.026938  0  0.075814  0  0.087064  0.089403  0  1.032142  0
H  H56  1  0.86751209  0.50382292  0.97309330  1  0  0.080352  0  0.935698  0  0  0.100183  0  0.992352  0  0  0.100365  0  0.993793  0  0.015987  0  0.094454  0.100068  0  0.991242  0
H  H57  1  0.36751423  0.99617906  0.47309258  1  0  0.080394  0  0.935675  0  0  0.100237  0  0.992312  0  0  0.100421  0  0.993752  0  0.016013  0  0.094463  0.100118  0  0.991199  0
H  H58  1  0.13248546  0.49617755  0.02690658  1  0  0.080376  0  0.935714  0  0  0.100197  0  0.992374  0  0  0.100378  0  0.993816  0  0.015975  0  0.094457  0.100078  0  0.991263  0
H  H59  1  0.63248607  0.00382141  0.52690655  1  0  0.08037  0  0.935663  0  0  0.100224  0  0.992307  0  0  0.100407  0  0.993748  0  0.015999  0  0.094455  0.100105  0  0.991195  0
H  H60  1  0.99576656  0.40136797  0.84054629  1  0  0.091124  0  0.999901  0  0  0.108331  0  1.070415  0  0  0.110162  0  1.070415  0  0.051545  0  0.072523  0.106912  0  1.070491  0
H  H61  1  0.49576778  0.09863439  0.34054795  1  0  0.091133  0  0.999861  0  0  0.108337  0  1.070366  0  0  0.110169  0  1.070367  0  0.051174  0  0.072553  0.106917  0  1.070445  0
H  H62  1  0.00423375  0.59863335  0.15945284  1  0  0.09115  0  0.999925  0  0  0.108339  0  1.070445  0  0  0.110165  0  1.070451  0  0.051258  0  0.072536  0.106919  0  1.070522  0
H  H63  1  0.50423527  0.90136607  0.65945443  1  0  0.091131  0  0.99995  0  0  0.108355  0  1.070437  0  0  0.110181  0  1.070443  0  0.051568  0  0.072543  0.106936  0  1.070514  0
H  H64  1  0.01631943  0.33854185  0.97057161  1  0  0.093132  0  0.950339  0  0  0.115864  0  1.008547  0  0  0.116548  0  1.009843  0  0.015957  0  0.082995  0.1154  0  1.007549  0
H  H65  1  0.51632004  0.16146051  0.47057158  1  0  0.093136  0  0.950296  0  0  0.115839  0  1.008533  0  0  0.116523  0  1.009828  0  0.015952  0  0.082991  0.115374  0  1.007537  0
H  H66  1  0.98367904  0.66145947  0.02942989  1  0  0.093102  0  0.950402  0  0  0.115839  0  1.008603  0  0  0.116522  0  1.009899  0  0.015849  0  0.082986  0.115373  0  1.007607  0
H  H67  1  0.48368026  0.83853995  0.52943076  1  0  0.093128  0  0.950411  0  0  0.115854  0  1.008619  0  0  0.116538  0  1.009914  0  0.015883  0  0.083001  0.115389  0  1.007622  0
H  H68  1  0.92330648  0.27011547  0.87160992  1  0  0.099792  0  0.953194  0  0  0.122671  0  1.01294  0  0  0.123638  0  1.013811  0  0.049026  0  0.085795  0.121954  0  1.012275  0
H  H69  1  0.42330862  0.22988774  0.37161000  1  0  0.09977  0  0.953207  0  0  0.122616  0  1.012996  0  0  0.123586  0  1.013866  0  0.049217  0  0.085759  0.121902  0  1.012327  0
H  H70  1  0.07669199  0.72988499  0.12839078  1  0  0.099781  0  0.953228  0  0  0.122666  0  1.012965  0  0  0.123635  0  1.013837  0  0.049019  0  0.08578  0.121951  0  1.012297  0
H  H71  1  0.57669443  0.77011358  0.62839078  1  0  0.099792  0  0.953288  0  0  0.122669  0  1.013029  0  0  0.123637  0  1.013899  0  0.049008  0  0.085799  0.121952  0  1.012365  0
C  C72  1  0.72658295  0.36477448  0.53370635  1  0  0.225498  0  3.660698  0  0  0.229772  0  3.902472  0  0  0.236466  0  3.918715  0  0.464057  0  0.11741  0.224912  0  3.892414  0
C  C73  1  0.22657868  0.13522533  0.03370712  1  0  0.225605  0  3.660801  0  0  0.229833  0  3.902614  0  0  0.236528  0  3.918869  0  0.464041  0  0.117431  0.224979  0  3.892558  0
C  C74  1  0.27342102  0.63522429  0.46629203  1  0  0.225449  0  3.66095  0  0  0.229715  0  3.902746  0  0  0.236407  0  3.918991  0  0.464026  0  0.117392  0.224856  0  3.892689  0
C  C75  1  0.77341979  0.86477514  0.96629277  1  0  0.225557  0  3.660954  0  0  0.229817  0  3.90275  0  0  0.23651  0  3.918996  0  0.464026  0  0.117449  0.224957  0  3.892693  0
C  C76  1  0.68196924  0.36573664  0.63802036  1  0  0.026015  0  3.63273  0  0  -0.006454  0  3.878056  0  0  -0.003739  0  3.889573  0  0.498259  0  0.033628  -0.009261  0  3.872402  0
C  C77  1  0.18196771  0.13425807  0.13802037  1  0  0.026003  0  3.632824  0  0  -0.006479  0  3.878152  0  0  -0.003768  0  3.889678  0  0.498192  0  0.033506  -0.009288  0  3.872499  0
C  C78  1  0.31803381  0.63425957  0.36198122  1  0  0.026119  0  3.632758  0  0  -0.006344  0  3.87808  0  0  -0.003627  0  3.889599  0  0.49813  0  0.033529  -0.009153  0  3.872429  0
C  C79  1  0.81803259  0.86573900  0.86198116  1  0  0.025975  0  3.632902  0  0  -0.006479  0  3.878222  0  0  -0.003762  0  3.889735  0  0.498437  0  0.03355  -0.009286  0  3.872571  0
C  C80  1  0.77474524  0.19537425  0.67554615  1  0  0.052735  0  3.688369  0  0  0.020509  0  3.948027  0  0  0.023314  0  3.960731  0  0.545143  0  0.0299  0.018082  0  3.940909  0
C  C81  1  0.27474097  0.30462301  0.17554933  1  0  0.052918  0  3.688223  0  0  0.020643  0  3.947895  0  0  0.023451  0  3.960602  0  0.544928  0  0.029922  0.018216  0  3.940776  0
C  C82  1  0.22525872  0.80462282  0.32445303  1  0  0.052827  0  3.688313  0  0  0.020582  0  3.94799  0  0  0.023389  0  3.960696  0  0.545097  0  0.029918  0.018155  0  3.940872  0
C  C83  1  0.72525567  0.69537661  0.82445295  1  0  0.052762  0  3.688279  0  0  0.020534  0  3.947917  0  0  0.023337  0  3.960629  0  0.544895  0  0.029917  0.018106  0  3.9408  0
C  C84  1  0.82082914  0.19317090  0.57260498  1  0  0.069897  0  3.691545  0  0  0.041842  0  3.946513  0  0  0.046217  0  3.958596  0  0.408077  0  0.033594  0.038242  0  3.940093  0
C  C85  1  0.32082211  0.30682976  0.07260732  1  0  0.069962  0  3.691462  0  0  0.041883  0  3.94647  0  0  0.046255  0  3.958555  0  0.408153  0  0.033571  0.038288  0  3.940055  0
C  C86  1  0.17917666  0.80682957  0.42739423  1  0  0.069944  0  3.691386  0  0  0.041851  0  3.946409  0  0  0.046226  0  3.958489  0  0.408141  0  0.033552  0.038249  0  3.939991  0
C  C87  1  0.67917269  0.69317156  0.92739733  1  0  0.069962  0  3.691385  0  0  0.041937  0  3.94631  0  0  0.046313  0  3.958393  0  0.408447  0  0.033611  0.038342  0  3.939885  0
C  C88  1  0.69871003  0.45784946  0.45512568  1  0  -0.151985  0  3.750307  0  0  -0.188047  0  3.995786  0  0  -0.190323  0  4.006992  0  -0.00751  0  -0.171721  -0.186308  0  3.988214  0
C  C89  1  0.19870759  0.04215035  0.95512488  1  0  -0.152036  0  3.750405  0  0  -0.188137  0  3.996006  0  0  -0.190376  0  4.007113  0  -0.007525  0  -0.171682  -0.186399  0  3.988437  0
C  C90  1  0.30129211  0.54215101  0.54487428  1  0  -0.151986  0  3.750215  0  0  -0.188116  0  3.995841  0  0  -0.19038  0  4.007025  0  -0.007477  0  -0.171693  -0.186379  0  3.988276  0
C  C91  1  0.80129180  0.95784841  0.04487423  1  0  -0.151967  0  3.750201  0  0  -0.188082  0  3.995769  0  0  -0.190355  0  4.006977  0  -0.007456  0  -0.171673  -0.186344  0  3.988201  0
C  C92  1  0.64326646  0.56563669  0.50148465  1  0  -0.28591  0  3.715163  0  0  -0.360014  0  3.955821  0  0  -0.363643  0  3.96851  0  -0.092225  0  -0.258845  -0.357014  0  3.94709  0
C  C93  1  0.14326494  0.93436359  0.00148306  1  0  -0.28585  0  3.715161  0  0  -0.359914  0  3.955853  0  0  -0.363541  0  3.968559  0  -0.092643  0  -0.258844  -0.356932  0  3.947103  0
C  C94  1  0.35673567  0.43436293  0.49851611  1  0  -0.28588  0  3.715096  0  0  -0.359983  0  3.955764  0  0  -0.363611  0  3.968456  0  -0.092592  0  -0.258838  -0.356999  0  3.947015  0
C  C95  1  0.85673628  0.06563688  0.99851527  1  0  -0.285876  0  3.715057  0  0  -0.359982  0  3.9557  0  0  -0.363614  0  3.968394  0  -0.092496  0  -0.258832  -0.356989  0  3.94696  0
C  C96  1  0.77350498  0.35679478  0.02808825  1  0  0.220302  0  3.680425  0  0  0.226552  0  3.920919  0  0  0.232042  0  3.938349  0  0.489399  0  0.122113  0.222626  0  3.909816  0
C  C97  1  0.27350529  0.14320588  0.52808990  1  0  0.220295  0  3.680439  0  0  0.226535  0  3.920942  0  0  0.232025  0  3.938373  0  0.489347  0  0.122157  0.22261  0  3.909839  0
C  C98  1  0.22649257  0.64320654  0.97191083  1  0  0.220231  0  3.680445  0  0  0.226458  0  3.920937  0  0  0.231946  0  3.93837  0  0.489357  0  0.122094  0.222535  0  3.909832  0
C  C99  1  0.72649410  0.85679459  0.47191081  1  0  0.22023  0  3.680442  0  0  0.226485  0  3.920972  0  0  0.231977  0  3.938402  0  0.489339  0  0.122093  0.222559  0  3.909869  0
C  C100  1  0.81953208  0.35844261  0.13339991  1  0  0.028286  0  3.642104  0  0  -0.005246  0  3.88969  0  0  -0.002236  0  3.90176  0  0.47358  0  0.038418  -0.008251  0  3.883505  0
C  C101  1  0.31953239  0.14155890  0.63339995  1  0  0.028315  0  3.642006  0  0  -0.005259  0  3.889658  0  0  -0.002246  0  3.901726  0  0.473583  0  0.038394  -0.008266  0  3.883474  0
C  C102  1  0.18046639  0.64155956  0.86659918  1  0  0.028367  0  3.642094  0  0  -0.005169  0  3.889674  0  0  -0.002163  0  3.901747  0  0.473606  0  0.038447  -0.008175  0  3.883488  0
C  C103  1  0.68046700  0.85843987  0.36659915  1  0  0.028355  0  3.641971  0  0  -0.005241  0  3.889627  0  0  -0.002232  0  3.901697  0  0.473607  0  0.03841  -0.008248  0  3.883443  0
C  C104  1  0.67578350  0.22922248  0.18468049  1  0  0.064258  0  3.663322  0  0  0.033598  0  3.919005  0  0  0.036175  0  3.93229  0  0.444783  0  0.03682  0.031308  0  3.911397  0
C  C105  1  0.17578380  0.27077818  0.68467973  1  0  0.064125  0  3.663358  0  0  0.033462  0  3.919039  0  0  0.036041  0  3.932324  0  0.444613  0  0.036791  0.031173  0  3.911429  0
C  C106  1  0.32421497  0.77077714  0.81531941  1  0  0.064137  0  3.663427  0  0  0.033455  0  3.91916  0  0  0.036032  0  3.932445  0  0.444831  0  0.036764  0.031167  0  3.911548  0
C  C107  1  0.82421467  0.72922143  0.31532016  1  0  0.064168  0  3.663306  0  0  0.033551  0  3.918971  0  0  0.036131  0  3.932253  0  0.444815  0  0.036821  0.03126  0  3.911363  0
C  C108  1  0.62672811  0.22923779  0.08130295  1  0  0.082812  0  3.674853  0  0  0.056295  0  3.925832  0  0  0.059951  0  3.940318  0  0.466261  0  0.039416  0.052875  0  3.918431  0
C  C109  1  0.12672841  0.27076372  0.58130139  1  0  0.082855  0  3.674743  0  0  0.056364  0  3.925657  0  0  0.060002  0  3.940177  0  0.466478  0  0.03946  0.052945  0  3.918257  0
C  C110  1  0.37327128  0.77076268  0.91869777  1  0  0.082865  0  3.674822  0  0  0.05636  0  3.925746  0  0  0.06  0  3.940262  0  0.466272  0  0.039454  0.052938  0  3.918349  0
C  C111  1  0.87327189  0.72923760  0.41869773  1  0  0.082883  0  3.674787  0  0  0.056401  0  3.92567  0  0  0.060036  0  3.940197  0  0.466264  0  0.039483  0.05298  0  3.918273  0
C  C112  1  0.83856653  0.42026914  0.94211689  1  0  -0.141383  0  3.721757  0  0  -0.183594  0  3.977502  0  0  -0.185142  0  3.989151  0  0.000524  0  -0.164358  -0.182305  0  3.969427  0
C  C113  1  0.33856592  0.07973322  0.44211772  1  0  -0.141499  0  3.721844  0  0  -0.183704  0  3.977565  0  0  -0.185262  0  3.989221  0  0.00047  0  -0.164384  -0.182408  0  3.969483  0
C  C114  1  0.16143194  0.57973133  0.05788221  1  0  -0.141413  0  3.72177  0  0  -0.183592  0  3.977472  0  0  -0.185139  0  3.989122  0  0.000528  0  -0.164339  -0.182299  0  3.969387  0
C  C115  1  0.66143529  0.92026725  0.55788142  1  0  -0.141365  0  3.72176  0  0  -0.183619  0  3.977543  0  0  -0.185175  0  3.9892  0  0.000498  0  -0.164337  -0.182323  0  3.969462  0
C  C116  1  0.95051164  0.35335194  0.90417721  1  0  -0.274094  0  3.678183  0  0  -0.344425  0  3.917302  0  0  -0.347799  0  3.928415  0  -0.097065  0  -0.247293  -0.341785  0  3.909477  0
C  C117  1  0.45051195  0.14665042  0.40417806  1  0  -0.27407  0  3.67814  0  0  -0.34435  0  3.917281  0  0  -0.347726  0  3.928393  0  -0.096865  0  -0.247301  -0.341711  0  3.909456  0
C  C118  1  0.04948774  0.64664853  0.09582270  1  0  -0.274085  0  3.678339  0  0  -0.344417  0  3.917445  0  0  -0.347791  0  3.928561  0  -0.096691  0  -0.247306  -0.341775  0  3.909619  0
C  C119  1  0.54949018  0.85335089  0.59582350  1  0  -0.274101  0  3.67838  0  0  -0.344423  0  3.917498  0  0  -0.347793  0  3.928615  0  -0.09698  0  -0.24732  -0.341783  0  3.909673  0
I  I120  1  0.03550502  0.43931579  0.34322059  1  0  -0.455879  0  1.405872  0  0  -0.39852  0  1.79731  0  0  -0.420761  0  1.76947  0  -0.479932  0  -0.189408  -0.381468  0  1.814501  0
I  I121  1  0.53550288  0.06068402  0.84322293  1  0  -0.455901  0  1.405862  0  0  -0.398549  0  1.797294  0  0  -0.420783  0  1.769458  0  -0.479952  0  -0.189428  -0.381497  0  1.814483  0
I  I122  1  0.96449528  0.56068298  0.65677933  1  0  -0.455891  0  1.405882  0  0  -0.398537  0  1.797349  0  0  -0.420784  0  1.769515  0  -0.479928  0  -0.189414  -0.381491  0  1.814542  0
I  I123  1  0.46449650  0.93931645  0.15677779  1  0  -0.455878  0  1.405857  0  0  -0.398522  0  1.797295  0  0  -0.420767  0  1.769462  0  -0.479943  0  -0.189412  -0.381476  0  1.81449  0
I  I124  1  0.94564494  0.05739516  0.32760478  1  0  -0.46882  0  1.33441  0  0  -0.418294  0  1.719935  0  0  -0.440831  0  1.693843  0  -0.493939  0  -0.22264  -0.401024  0  1.735946  0
I  I125  1  0.44564617  0.44260380  0.82760484  1  0  -0.468812  0  1.334414  0  0  -0.418277  0  1.719907  0  0  -0.440815  0  1.693833  0  -0.493948  0  -0.222634  -0.401007  0  1.735917  0
I  I126  1  0.05435078  0.94260446  0.67239186  1  0  -0.468869  0  1.334469  0  0  -0.418277  0  1.719907  0  0  -0.440843  0  1.693857  0  -0.493943  0  -0.222636  -0.401012  0  1.735923  0
I  I127  1  0.55435047  0.55739411  0.17239181  1  0  -0.468838  0  1.334443  0  0  -0.418291  0  1.719926  0  0  -0.440855  0  1.693883  0  -0.493928  0  -0.222644  -0.401027  0  1.73594  0
N  N128  1  0.79647182  0.27618873  0.49997593  1  0  -0.284898  0  3.301566  0  0  -0.220893  0  3.590002  0  0  -0.225302  0  3.592194  0  -1.202121  0  -0.349426  -0.21903  0  3.58891  0
N  N129  1  0.29646754  0.22381108  0.99997670  1  0  -0.284933  0  3.301568  0  0  -0.220866  0  3.589963  0  0  -0.225278  0  3.592158  0  -1.202057  0  -0.349376  -0.219022  0  3.58889  0
N  N130  1  0.20353215  0.72380834  0.50002405  1  0  -0.284899  0  3.301621  0  0  -0.220852  0  3.59002  0  0  -0.22526  0  3.592209  0  -1.202088  0  -0.349385  -0.218992  0  3.588933  0
N  N131  1  0.70353093  0.77619194  0.00002399  1  0  -0.284971  0  3.301746  0  0  -0.220959  0  3.590168  0  0  -0.225375  0  3.592365  0  -1.20215  0  -0.349444  -0.219101  0  3.589081  0
N  N132  1  0.70258745  0.28140190  0.70937063  1  0  -0.224224  0  3.35624  0  0  -0.155411  0  3.642936  0  0  -0.1573  0  3.646634  0  -1.224826  0  -0.34896  -0.155319  0  3.641116  0
N  N133  1  0.20258134  0.21859365  0.20937379  1  0  -0.224456  0  3.35635  0  0  -0.155563  0  3.642989  0  0  -0.15746  0  3.646695  0  -1.224573  0  -0.34891  -0.155476  0  3.641176  0
N  N134  1  0.29741835  0.71859516  0.29062777  1  0  -0.224377  0  3.356288  0  0  -0.155539  0  3.642963  0  0  -0.157436  0  3.646673  0  -1.224704  0  -0.348915  -0.155452  0  3.64115  0
N  N135  1  0.79741438  0.78140426  0.79063088  1  0  -0.224291  0  3.35635  0  0  -0.155489  0  3.643042  0  0  -0.157386  0  3.646755  0  -1.224949  0  -0.348933  -0.155402  0  3.641231  0
N  N136  1  0.67615814  0.29070787  0.00113607  1  0  -0.280049  0  3.31908  0  0  -0.212649  0  3.594936  0  0  -0.218497  0  3.599928  0  -1.168304  0  -0.344895  -0.209916  0  3.592156  0
N  N137  1  0.17615936  0.20929194  0.50113613  1  0  -0.280013  0  3.319071  0  0  -0.212582  0  3.59488  0  0  -0.218433  0  3.59988  0  -1.168329  0  -0.3449  -0.209858  0  3.592112  0
N  N138  1  0.32383941  0.70929175  0.99886381  1  0  -0.280012  0  3.319085  0  0  -0.212571  0  3.594892  0  0  -0.218424  0  3.599898  0  -1.16831  0  -0.344878  -0.209846  0  3.592123  0
N  N139  1  0.82383911  0.79070768  0.49886377  1  0  -0.28002  0  3.319083  0  0  -0.212597  0  3.594891  0  0  -0.218449  0  3.599896  0  -1.168298  0  -0.344886  -0.20987  0  3.59212  0
N  N140  1  0.77452815  0.29321322  0.21203457  1  0  -0.224506  0  3.369044  0  0  -0.156191  0  3.658139  0  0  -0.158991  0  3.661951  0  -1.209534  0  -0.348258  -0.155336  0  3.656353  0
N  N141  1  0.27452937  0.20678828  0.71203463  1  0  -0.224452  0  3.368981  0  0  -0.156125  0  3.658076  0  0  -0.158928  0  3.661889  0  -1.20954  0  -0.348265  -0.155272  0  3.656291  0
N  N142  1  0.22546940  0.70678724  0.78796531  1  0  -0.22449  0  3.369136  0  0  -0.15614  0  3.658186  0  0  -0.158937  0  3.661992  0  -1.209649  0  -0.348254  -0.155288  0  3.656404  0
N  N143  1  0.72546910  0.79321133  0.28796527  1  0  -0.224522  0  3.368978  0  0  -0.156175  0  3.65805  0  0  -0.158979  0  3.661864  0  -1.209648  0  -0.3483  -0.155325  0  3.656272  0
