# generated using pymatgen
data_Ag2H6C6SN4O5
_symmetry_space_group_name_H-M   'P 1'
_cell_length_a   8.38934597
_cell_length_b   8.56127994
_cell_length_c   8.86114067
_cell_angle_alpha   88.28716848
_cell_angle_beta   74.29659704
_cell_angle_gamma   67.31716288
_symmetry_Int_Tables_number   1
_chemical_formula_structural   Ag2H6C6SN4O5
_chemical_formula_sum   'Ag4 H12 C12 S2 N8 O10'
_cell_volume   563.30388387
_cell_formula_units_Z   2
loop_
 _symmetry_equiv_pos_site_id
 _symmetry_equiv_pos_as_xyz
  1  'x, y, z'
loop_
 _atom_site_type_symbol
 _atom_site_label
 _atom_site_symmetry_multiplicity
 _atom_site_fract_x
 _atom_site_fract_y
 _atom_site_fract_z
 _atom_site_occupancy
 _atom_site_hle17_bader_spin_density
 _atom_site_hle17_ddec_charge
 _atom_site_hle17_ddec_spin_density
 _atom_site_hle17_ddec_sum_bond_order
 _atom_site_hle17_magmom
 _atom_site_hse06_10hf_bader_spin_density
 _atom_site_hse06_10hf_ddec_charge
 _atom_site_hse06_10hf_ddec_spin_density
 _atom_site_hse06_10hf_ddec_sum_bond_order
 _atom_site_hse06_10hf_magmom
 _atom_site_hse06_bader_spin_density
 _atom_site_hse06_ddec_charge
 _atom_site_hse06_ddec_spin_density
 _atom_site_hse06_ddec_sum_bond_order
 _atom_site_hse06_magmom
 _atom_site_pbe_bader_spin_density
 _atom_site_pbe_cm5_charge
 _atom_site_pbe_ddec_charge
 _atom_site_pbe_ddec_spin_density
 _atom_site_pbe_ddec_sum_bond_order
 _atom_site_pbe_magmom
Ag  Ag0  1  0.07572281  0.20267820  0.92079648  1  0  0.55117  0  1.456382  0  0  0.409739  0  1.924652  0  0  0.43447  0  1.873222  0  0  0.481855  0.394051  0  1.9599  0
Ag  Ag1  1  0.92427672  0.79732671  0.07920636  1  0  0.551205  0  1.456378  0  0  0.40978  0  1.924654  0  0  0.434512  0  1.873224  0  0  0.481878  0.394094  0  1.959903  0
Ag  Ag2  1  0.68263969  0.57331837  0.14821999  1  0  0.555212  0  1.449405  0  0  0.42434  0  1.909794  0  0  0.447029  0  1.858213  0  0  0.487872  0.410823  0  1.944576  0
Ag  Ag3  1  0.31735787  0.42668528  0.85178229  1  0  0.555258  0  1.449382  0  0  0.424374  0  1.909791  0  0  0.447065  0  1.858207  0  0  0.487897  0.410866  0  1.944554  0
H  H4  1  0.50830232  0.94231429  0.17266539  1  0  0.417981  0  0.884753  0  0  0.388901  0  0.946638  0  0  0.398613  0  0.932468  0  0  0.28005  0.382147  0  0.956411  0
H  H5  1  0.49170006  0.05768664  0.82733128  1  0  0.418019  0  0.884697  0  0  0.388936  0  0.946589  0  0  0.398649  0  0.932421  0  0  0.280075  0.382183  0  0.956363  0
H  H6  1  0.42919319  0.86446367  0.06889669  1  0  0.414459  0  0.882473  0  0  0.384555  0  0.952828  0  0  0.394032  0  0.939245  0  0  0.280493  0.377809  0  0.962425  0
H  H7  1  0.57080819  0.13553974  0.93109786  1  0  0.414482  0  0.882475  0  0  0.384571  0  0.952817  0  0  0.394047  0  0.939239  0  0  0.280514  0.377827  0  0.96241  0
H  H8  1  0.11192977  0.08153391  0.56588999  1  0  0.121515  0  0.909739  0  0  0.132875  0  0.96347  0  0  0.136248  0  0.960491  0  0  0.136343  0.130105  0  0.966091  0
H  H9  1  0.88806431  0.91846606  0.43411562  1  0  0.121502  0  0.909732  0  0  0.132854  0  0.963467  0  0  0.136226  0  0.96049  0  0  0.136332  0.130082  0  0.966089  0
H  H10  1  0.30180324  0.55746918  0.49910644  1  0  0.128299  0  0.891977  0  0  0.138313  0  0.946677  0  0  0.141744  0  0.943584  0  0  0.139473  0.135496  0  0.949387  0
H  H11  1  0.69819712  0.44253058  0.50089306  1  0  0.128274  0  0.892013  0  0  0.138292  0  0.946705  0  0  0.141724  0  0.943613  0  0  0.139463  0.135475  0  0.949415  0
H  H12  1  0.08469968  0.09609359  0.26657041  1  0  0.125086  0  0.927127  0  0  0.132725  0  0.986592  0  0  0.136129  0  0.983043  0  0  0.13478  0.129976  0  0.98956  0
H  H13  1  0.91530244  0.90390488  0.73342870  1  0  0.125088  0  0.927149  0  0  0.132709  0  0.986621  0  0  0.136109  0  0.983072  0  0  0.134755  0.129958  0  0.989589  0
H  H14  1  0.28383517  0.56666216  0.19729987  1  0  0.126135  0  0.913921  0  0  0.134366  0  0.974763  0  0  0.13811  0  0.970616  0  0  0.135469  0.131229  0  0.978344  0
H  H15  1  0.71616743  0.43333510  0.80270144  1  0  0.126105  0  0.913911  0  0  0.134342  0  0.974757  0  0  0.138086  0  0.97061  0  0  0.135454  0.131205  0  0.978338  0
C  C16  1  0.14779613  0.19120049  0.54055373  1  0  0.098321  0  3.600799  0  0  0.062065  0  3.847121  0  0  0.067514  0  3.860242  0  0  0.082541  0.057639  0  3.839722  0
C  C17  1  0.85220295  0.80879937  0.45944948  1  0  0.098337  0  3.600714  0  0  0.062091  0  3.847006  0  0  0.06754  0  3.860127  0  0  0.082568  0.057669  0  3.839604  0
C  C18  1  0.16972901  0.25610928  0.39098036  1  0  0.026527  0  3.750056  0  0  0.035946  0  3.988605  0  0  0.035846  0  4.006224  0  0  0.021548  0.035697  0  3.977628  0
C  C19  1  0.83027036  0.74388680  0.60902297  1  0  0.026455  0  3.750106  0  0  0.035902  0  3.988559  0  0  0.035799  0  4.006176  0  0  0.021528  0.035655  0  3.977583  0
C  C20  1  0.22320424  0.39391005  0.37250570  1  0  0.037684  0  3.752486  0  0  0.04522  0  3.992336  0  0  0.045214  0  4.010057  0  0  0.023031  0.044877  0  3.981176  0
C  C21  1  0.77679485  0.60608979  0.62749637  1  0  0.037671  0  3.752386  0  0  0.045225  0  3.992204  0  0  0.04522  0  4.009925  0  0  0.023006  0.044884  0  3.981045  0
C  C22  1  0.25387557  0.45509036  0.50393835  1  0  0.113086  0  3.598178  0  0  0.072232  0  3.859028  0  0  0.079385  0  3.87056  0  0  0.085292  0.066623  0  3.85276  0
C  C23  1  0.74612104  0.54490948  0.49606324  1  0  0.113078  0  3.598098  0  0  0.072221  0  3.858945  0  0  0.079374  0  3.870477  0  0  0.085278  0.066613  0  3.852678  0
C  C24  1  0.13396008  0.19735363  0.26104618  1  0  0.114942  0  3.597203  0  0  0.073934  0  3.854405  0  0  0.08161  0  3.86507  0  0  0.085235  0.067901  0  3.848811  0
C  C25  1  0.86604326  0.80264488  0.73895488  1  0  0.114977  0  3.597203  0  0  0.074003  0  3.854333  0  0  0.081691  0  3.864985  0  0  0.085307  0.067969  0  3.848741  0
C  C26  1  0.24130969  0.46104791  0.22387917  1  0  0.111488  0  3.608585  0  0  0.067278  0  3.872384  0  0  0.074703  0  3.882978  0  0  0.081618  0.061491  0  3.866914  0
C  C27  1  0.75868864  0.53895074  0.77612542  1  0  0.111605  0  3.608403  0  0  0.067358  0  3.872231  0  0  0.074781  0  3.882824  0  0  0.081672  0.061572  0  3.866762  0
S  S28  1  0.69493256  0.19967291  0.15994053  1  0  1.528887  0  5.880466  0  0  1.416486  0  6.393142  0  0  1.472879  0  6.36169  0  0  0.518466  1.376844  0  6.412979  0
S  S29  1  0.30506907  0.80032680  0.84005752  1  0  1.52892  0  5.88042  0  0  1.416523  0  6.393088  0  0  1.472918  0  6.361634  0  0  0.518481  1.376885  0  6.412935  0
N  N30  1  0.16799657  0.26088967  0.66131733  1  0  -0.153693  0  3.174296  0  0  -0.097895  0  3.46372  0  0  -0.106324  0  3.476279  0  0  -0.209004  -0.093065  0  3.456784  0
N  N31  1  0.83199953  0.73911144  0.33868431  1  0  -0.153646  0  3.174218  0  0  -0.09787  0  3.463672  0  0  -0.1063  0  3.476229  0  0  -0.209  -0.09304  0  3.456736  0
N  N32  1  0.22322129  0.39312806  0.64235208  1  0  -0.162609  0  3.189573  0  0  -0.110151  0  3.488147  0  0  -0.119244  0  3.500483  0  0  -0.218718  -0.105049  0  3.481302  0
N  N33  1  0.77677781  0.60687174  0.35764887  1  0  -0.162588  0  3.189438  0  0  -0.110151  0  3.488046  0  0  -0.119242  0  3.500379  0  0  -0.218711  -0.105048  0  3.4812  0
N  N34  1  0.14876012  0.26913959  0.12696090  1  0  -0.154095  0  3.220114  0  0  -0.097028  0  3.525535  0  0  -0.105757  0  3.53453  0  0  -0.218078  -0.092514  0  3.521624  0
N  N35  1  0.85124247  0.73085770  0.87304154  1  0  -0.154104  0  3.220186  0  0  -0.097048  0  3.52558  0  0  -0.105782  0  3.534571  0  0  -0.218084  -0.092534  0  3.52167  0
N  N36  1  0.20557566  0.40044191  0.10750381  1  0  -0.172218  0  3.233264  0  0  -0.11755  0  3.540169  0  0  -0.126058  0  3.548846  0  0  -0.223167  -0.113042  0  3.536323  0
N  N37  1  0.79442645  0.59955659  0.89249643  1  0  -0.172297  0  3.233368  0  0  -0.117624  0  3.540284  0  0  -0.126127  0  3.548961  0  0  -0.223217  -0.113114  0  3.536439  0
O  O38  1  0.59757349  0.35099996  0.27830676  1  0  -0.742367  0  1.966609  0  0  -0.677653  0  2.235533  0  0  -0.705881  0  2.219423  0  0  -0.377138  -0.656048  0  2.245066  0
O  O39  1  0.40242638  0.64900103  0.72169167  1  0  -0.742381  0  1.96669  0  0  -0.677669  0  2.235615  0  0  -0.705898  0  2.219505  0  0  -0.377139  -0.656066  0  2.245153  0
O  O40  1  0.76261868  0.25653716  0.00207119  1  0  -0.755921  0  2.02324  0  0  -0.681056  0  2.303332  0  0  -0.707697  0  2.283049  0  0  -0.384039  -0.661249  0  2.31616  0
O  O41  1  0.23738270  0.74346006  0.99792817  1  0  -0.755933  0  2.023177  0  0  -0.68107  0  2.303281  0  0  -0.70771  0  2.282995  0  0  -0.384052  -0.661263  0  2.316114  0
O  O42  1  0.56780079  0.12151604  0.14365999  1  0  -0.769401  0  1.99238  0  0  -0.70048  0  2.230484  0  0  -0.726026  0  2.216187  0  0  -0.367358  -0.681606  0  2.23953  0
O  O43  1  0.43220033  0.87848494  0.85633813  1  0  -0.769374  0  1.992312  0  0  -0.700471  0  2.230438  0  0  -0.726017  0  2.21614  0  0  -0.367346  -0.681597  0  2.239491  0
O  O44  1  0.84790217  0.07421270  0.21081894  1  0  -0.740113  0  1.99423  0  0  -0.677346  0  2.266841  0  0  -0.702606  0  2.247494  0  0  -0.37589  -0.658501  0  2.279075  0
O  O45  1  0.15209788  0.92579091  0.78918271  1  0  -0.740148  0  1.99425  0  0  -0.677374  0  2.266868  0  0  -0.702635  0  2.247523  0  0  -0.375884  -0.658528  0  2.279104  0
O  O46  1  0.45201173  0.85945986  0.17332248  1  0  -0.8204  0  1.83691  0  0  -0.759825  0  2.025324  0  0  -0.783946  0  1.994852  0  0  -0.600693  -0.741654  0  2.045868  0
O  O47  1  0.54798964  0.14054358  0.82667320  1  0  -0.82048  0  1.836845  0  0  -0.759896  0  2.025224  0  0  -0.784017  0  1.994747  0  0  -0.600757  -0.741726  0  2.045771  0
