# generated using pymatgen
data_ZnH10C14Cl2O5
_symmetry_space_group_name_H-M   'P 1'
_cell_length_a   5.83371556
_cell_length_b   7.79832147
_cell_length_c   16.15461331
_cell_angle_alpha   83.18797486
_cell_angle_beta   81.06387396
_cell_angle_gamma   87.54986896
_symmetry_Int_Tables_number   1
_chemical_formula_structural   ZnH10C14Cl2O5
_chemical_formula_sum   'Zn2 H20 C28 Cl4 O10'
_cell_volume   720.65761572
_cell_formula_units_Z   2
loop_
 _symmetry_equiv_pos_site_id
 _symmetry_equiv_pos_as_xyz
  1  'x, y, z'
loop_
 _atom_site_type_symbol
 _atom_site_label
 _atom_site_symmetry_multiplicity
 _atom_site_fract_x
 _atom_site_fract_y
 _atom_site_fract_z
 _atom_site_occupancy
 _atom_site_pbe_bader_charge
 _atom_site_pbe_bader_spin_density
 _atom_site_pbe_cm5_charge
 _atom_site_pbe_ddec_charge
 _atom_site_pbe_ddec_spin_density
 _atom_site_pbe_ddec_sum_bond_order
 _atom_site_pbe_magmom
Zn  Zn0  1  0.81087741  0.25332903  0.99638251  1  1.369622  0  0.702377  1.022988  0  2.184411  0
Zn  Zn1  1  0.18910878  0.74667857  0.00361053  1  1.369825  0  0.702409  1.023007  0  2.184226  0
H  H2  1  0.36626953  0.35284799  0.00610185  1  0.655137  0  0.297032  0.398145  0  0.940855  0
H  H3  1  0.39853933  0.16182613  0.97711847  1  0.656271  0  0.297522  0.395713  0  0.943336  0
H  H4  1  0.63371844  0.64716090  0.99388399  1  0.655175  0  0.297011  0.398122  0  0.940892  0
H  H5  1  0.60143415  0.83817244  0.02288465  1  0.656287  0  0.297534  0.395708  0  0.943362  0
H  H6  1  0.98607768  0.81903897  0.26357728  1  0.14243  0  0.105207  0.124347  0  1.027379  0
H  H7  1  0.25937063  0.68500888  0.73920202  1  0.116313  0  0.10595  0.125876  0  1.021973  0
H  H8  1  0.01393979  0.18096859  0.73641952  1  0.142557  0  0.10523  0.12436  0  1.027367  0
H  H9  1  0.74063523  0.31499998  0.26080636  1  0.116547  0  0.105932  0.125908  0  1.021878  0
H  H10  1  0.38964317  0.00440159  0.42527708  1  0.097181  0  0.087305  0.095784  0  1.068529  0
H  H11  1  0.85114018  0.50196986  0.56753145  1  0.103607  0  0.087501  0.095522  0  1.06785  0
H  H12  1  0.61042534  0.99555940  0.57474465  1  0.097258  0  0.087312  0.095849  0  1.068386  0
H  H13  1  0.14889267  0.49805189  0.43245388  1  0.104059  0  0.087454  0.095402  0  1.067893  0
H  H14  1  0.20451548  0.10715792  0.29928143  1  0.112177  0  0.096971  0.099397  0  1.0277  0
H  H15  1  0.55285230  0.40098111  0.68826446  1  0.108292  0  0.098155  0.102111  0  1.012849  0
H  H16  1  0.79543901  0.89282515  0.70075276  1  0.114084  0  0.097016  0.099383  0  1.027753  0
H  H17  1  0.44718015  0.59903419  0.31172184  1  0.108787  0  0.098173  0.102177  0  1.012875  0
H  H18  1  0.41293186  0.06981244  0.15490460  1  0.101647  0  0.104629  0.109902  0  1.00209  0
H  H19  1  0.60798871  0.44033640  0.83544270  1  0.127377  0  0.104825  0.114933  0  1.01733  0
H  H20  1  0.58702400  0.93015901  0.84511511  1  0.101922  0  0.104586  0.109855  0  1.002026  0
H  H21  1  0.39201937  0.55967893  0.16454701  1  0.126978  0  0.104785  0.114891  0  1.017507  0
C  C22  1  0.83288270  0.91423570  0.11498770  1  1.532941  0  0.226401  0.604952  0  4.143558  0
C  C23  1  0.96194824  0.59555784  0.88337408  1  1.53057  0  0.227621  0.606759  0  4.136092  0
C  C24  1  0.16707794  0.08579000  0.88501364  1  1.531043  0  0.226427  0.605008  0  4.143468  0
C  C25  1  0.03805647  0.40442260  0.11662382  1  1.529516  0  0.227674  0.606825  0  4.13631  0
C  C26  1  0.71062477  0.94139940  0.20080656  1  -0.042895  0  -0.018085  -0.025524  0  3.966921  0
C  C27  1  0.93485338  0.56669095  0.79580955  1  0.015744  0  -0.018859  -0.031541  0  3.970786  0
C  C28  1  0.28935838  0.05860820  0.79920013  1  -0.04313  0  -0.018178  -0.025688  0  3.967119  0
C  C29  1  0.06518237  0.43328429  0.20418575  1  0.015318  0  -0.01887  -0.031429  0  3.971104  0
C  C30  1  0.81574127  0.88272862  0.27165241  1  0.015178  0  -0.088235  -0.161597  0  3.934885  0
C  C31  1  0.10533985  0.62276287  0.72792661  1  0.018642  0  -0.087921  -0.161367  0  3.9347  0
C  C32  1  0.18426137  0.11725312  0.72834922  1  0.015073  0  -0.088252  -0.161612  0  3.935211  0
C  C33  1  0.89469265  0.37723822  0.27206971  1  0.018902  0  -0.087889  -0.161427  0  3.934564  0
C  C34  1  0.69970257  0.90868007  0.35147225  1  -0.004229  0  0.009848  0.140262  0  4.053333  0
C  C35  1  0.07384164  0.59653486  0.64656914  1  -0.021388  0  0.008596  0.137232  0  4.046214  0
C  C36  1  0.30029943  0.09129650  0.64853225  1  -0.003563  0  0.009869  0.140232  0  4.053411  0
C  C37  1  0.92621624  0.40347266  0.35342219  1  -0.021972  0  0.008398  0.137078  0  4.046153  0
C  C38  1  0.47886375  0.98717824  0.36231359  1  0.014197  0  -0.094917  -0.147049  0  3.993964  0
C  C39  1  0.87456338  0.51931700  0.63154667  1  -0.012677  0  -0.095247  -0.147521  0  3.998551  0
C  C40  1  0.52114711  0.01280736  0.63769707  1  0.013969  0  -0.09494  -0.14708  0  3.993736  0
C  C41  1  0.12547451  0.48069959  0.36843933  1  -0.012668  0  -0.095096  -0.147262  0  3.998263  0
C  C42  1  0.37564261  0.04424505  0.29122184  1  -0.086677  0  -0.088224  -0.06222  0  3.989373  0
C  C43  1  0.70671953  0.46345457  0.69975906  1  -0.000714  0  -0.087831  -0.061459  0  3.986696  0
C  C44  1  0.62432748  0.95573930  0.70880357  1  -0.088359  0  -0.088218  -0.062046  0  3.989561  0
C  C45  1  0.29330069  0.53656850  0.30022125  1  -0.001433  0  -0.087752  -0.061553  0  3.986424  0
C  C46  1  0.49093058  0.02325897  0.21067685  1  -0.006823  0  -0.081037  -0.083982  0  3.934632  0
C  C47  1  0.73625329  0.48579884  0.78170797  1  -0.089369  0  -0.080322  -0.084844  0  3.928652  0
C  C48  1  0.50904072  0.97673184  0.78934501  1  -0.00714  0  -0.08097  -0.08395  0  3.934884  0
C  C49  1  0.26376222  0.51420614  0.21827690  1  -0.089185  0  -0.080302  -0.084824  0  3.928943  0
Cl  Cl50  1  0.83476567  0.84393374  0.43901375  1  -0.223033  0  0.00655  -0.07329  0  1.640527  0
Cl  Cl51  1  0.28763642  0.65971915  0.56224319  1  -0.223114  0  0.005034  -0.074846  0  1.632644  0
Cl  Cl52  1  0.16528632  0.15608024  0.56097943  1  -0.223394  0  0.00656  -0.073271  0  1.640427  0
Cl  Cl53  1  0.71241561  0.34030000  0.43774773  1  -0.222579  0  0.005012  -0.074856  0  1.632514  0
O  O54  1  0.75252338  0.98886416  0.04996964  1  -1.214177  0  -0.328609  -0.620073  0  2.385913  0
O  O55  1  0.82012901  0.52485427  0.94514061  1  -1.211723  0  -0.320458  -0.601418  0  2.402731  0
O  O56  1  0.24739962  0.01117063  0.95003887  1  -1.214095  0  -0.328592  -0.620153  0  2.385995  0
O  O57  1  0.17984739  0.47514171  0.05485625  1  -1.211932  0  -0.320419  -0.601378  0  2.402722  0
O  O58  1  0.00882626  0.81116998  0.11047650  1  -1.144082  0  -0.299829  -0.53385  0  2.351214  0
O  O59  1  0.12252853  0.69501403  0.89249764  1  -1.155939  0  -0.303173  -0.542097  0  2.342232  0
O  O60  1  0.99110910  0.18884542  0.88951417  1  -1.142335  0  -0.299827  -0.533817  0  2.351054  0
O  O61  1  0.87743224  0.30498842  0.10750560  1  -1.154723  0  -0.303189  -0.542195  0  2.342183  0
O  O62  1  0.48057361  0.27135617  0.97710940  1  -1.280616  0  -0.578861  -0.761299  0  2.16023  0
O  O63  1  0.51940693  0.72864368  0.02288295  1  -1.280661  0  -0.578809  -0.761203  0  2.160247  0
