# generated using pymatgen
data_UH15C17NO8
_symmetry_space_group_name_H-M   'P 1'
_cell_length_a   8.44334755
_cell_length_b   10.20837258
_cell_length_c   10.78241492
_cell_angle_alpha   80.66211479
_cell_angle_beta   86.62912591
_cell_angle_gamma   85.57606072
_symmetry_Int_Tables_number   1
_chemical_formula_structural   UH15C17NO8
_chemical_formula_sum   'U2 H30 C34 N2 O16'
_cell_volume   913.30695712
_cell_formula_units_Z   2
loop_
 _symmetry_equiv_pos_site_id
 _symmetry_equiv_pos_as_xyz
  1  'x, y, z'
loop_
 _atom_site_type_symbol
 _atom_site_label
 _atom_site_symmetry_multiplicity
 _atom_site_fract_x
 _atom_site_fract_y
 _atom_site_fract_z
 _atom_site_occupancy
 _atom_site_hle17_bader_spin_density
 _atom_site_hle17_ddec_charge
 _atom_site_hle17_ddec_spin_density
 _atom_site_hle17_ddec_sum_bond_order
 _atom_site_hle17_magmom
 _atom_site_hse06_10hf_bader_spin_density
 _atom_site_hse06_10hf_ddec_charge
 _atom_site_hse06_10hf_ddec_spin_density
 _atom_site_hse06_10hf_ddec_sum_bond_order
 _atom_site_hse06_10hf_magmom
 _atom_site_hse06_bader_spin_density
 _atom_site_hse06_ddec_charge
 _atom_site_hse06_ddec_spin_density
 _atom_site_hse06_ddec_sum_bond_order
 _atom_site_hse06_magmom
 _atom_site_pbe_bader_spin_density
 _atom_site_pbe_cm5_charge
 _atom_site_pbe_ddec_charge
 _atom_site_pbe_ddec_spin_density
 _atom_site_pbe_ddec_sum_bond_order
 _atom_site_pbe_magmom
U  U0  1  0.08125315  0.75615482  0.09938420  1  0  2.456406  0  4.174058  0  0  2.523034  0  4.830803  0  0  2.634497  0  4.79274  0  0  2.181539  2.443075  0  4.859921  0
U  U1  1  0.91874700  0.24384246  0.90061963  1  0  2.456322  0  4.174352  0  0  2.523042  0  4.831013  0  0  2.634451  0  4.793029  0  0  2.181568  2.443036  0  4.860228  0
H  H2  1  0.21752603  0.44700206  0.99513506  1  0  0.072237  0  0.945564  0  0  0.0809  0  1.011882  0  0  0.082655  0  1.006264  0  0  0.1414  0.079556  0  1.016053  0
H  H3  1  0.78248107  0.55299723  0.00486804  1  0  0.072242  0  0.945575  0  0  0.080866  0  1.011939  0  0  0.082618  0  1.006322  0  0  0.141362  0.079517  0  1.016111  0
H  H4  1  0.46433327  0.60029512  0.68660917  1  0  0.093509  0  0.945172  0  0  0.113765  0  1.009717  0  0  0.113435  0  1.0111  0  0  0.101534  0.113818  0  1.008902  0
H  H5  1  0.53567237  0.39970714  0.31339262  1  0  0.093613  0  0.945122  0  0  0.11387  0  1.009643  0  0  0.11354  0  1.011025  0  0  0.101588  0.113925  0  1.00883  0
H  H6  1  0.62359820  0.54202092  0.78872004  1  0  0.115211  0  0.940942  0  0  0.134801  0  1.001656  0  0  0.135634  0  1.00119  0  0  0.113831  0.134149  0  1.001978  0
H  H7  1  0.37640871  0.45798035  0.21128182  1  0  0.115235  0  0.941068  0  0  0.134836  0  1.00175  0  0  0.135673  0  1.001281  0  0  0.113813  0.134183  0  1.002072  0
H  H8  1  0.48685841  0.67762627  0.82118622  1  0  0.113765  0  0.950384  0  0  0.131636  0  1.013921  0  0  0.133051  0  1.013495  0  0  0.110402  0.130372  0  1.014572  0
H  H9  1  0.51314966  0.32237500  0.17881465  1  0  0.113833  0  0.950339  0  0  0.131702  0  1.013857  0  0  0.133117  0  1.013433  0  0  0.110426  0.130442  0  1.014508  0
H  H10  1  0.32752299  0.29395050  0.89870805  1  0  0.111486  0  0.960154  0  0  0.130944  0  1.024327  0  0  0.131639  0  1.024225  0  0  0.114478  0.130392  0  1.024771  0
H  H11  1  0.67247654  0.70605273  0.10128931  1  0  0.111538  0  0.96008  0  0  0.130931  0  1.024321  0  0  0.131626  0  1.024216  0  0  0.114463  0.130377  0  1.024764  0
H  H12  1  0.53208094  0.31050150  0.84653401  1  0  0.117986  0  0.982788  0  0  0.135786  0  1.047462  0  0  0.137258  0  1.046402  0  0  0.110608  0.134716  0  1.048446  0
H  H13  1  0.46791882  0.68949874  0.15346288  1  0  0.117951  0  0.982762  0  0  0.135742  0  1.04746  0  0  0.137214  0  1.046398  0  0  0.110582  0.134671  0  1.048445  0
H  H14  1  0.37750006  0.35162854  0.73776847  1  0  0.101402  0  0.94838  0  0  0.120556  0  1.014724  0  0  0.121043  0  1.015324  0  0  0.102202  0.120262  0  1.014165  0
H  H15  1  0.62249811  0.64837667  0.26222865  1  0  0.101401  0  0.948409  0  0  0.120538  0  1.014775  0  0  0.121027  0  1.015372  0  0  0.10221  0.120242  0  1.014219  0
H  H16  1  0.49020375  0.89041593  0.91461291  1  0  0.107036  0  0.935959  0  0  0.119305  0  0.990956  0  0  0.122326  0  0.988899  0  0  0.114842  0.11694  0  0.993  0
H  H17  1  0.50978745  0.10958727  0.08538402  1  0  0.107023  0  0.93594  0  0  0.119289  0  0.990934  0  0  0.12231  0  0.988876  0  0  0.114824  0.116932  0  0.992971  0
H  H18  1  0.74287514  0.92308989  0.78306649  1  0  0.129665  0  0.928301  0  0  0.140749  0  0.983839  0  0  0.144034  0  0.982366  0  0  0.120601  0.138359  0  0.985089  0
H  H19  1  0.25712046  0.07691832  0.21693310  1  0  0.129683  0  0.928207  0  0  0.14078  0  0.983747  0  0  0.144066  0  0.982273  0  0  0.12062  0.138386  0  0.985001  0
H  H20  1  0.95148061  0.06620333  0.36555930  1  0  0.127957  0  0.943784  0  0  0.134338  0  1.008251  0  0  0.138631  0  1.005855  0  0  0.111555  0.13133  0  1.010018  0
H  H21  1  0.04851597  0.93379293  0.63444027  1  0  0.127905  0  0.943932  0  0  0.134346  0  1.008302  0  0  0.138638  0  1.005905  0  0  0.111546  0.131337  0  1.01007  0
H  H22  1  0.04802760  0.26925864  0.22829990  1  0  0.111819  0  0.957313  0  0  0.121739  0  1.018189  0  0  0.125247  0  1.01468  0  0  0.110195  0.119146  0  1.02089  0
H  H23  1  0.95197129  0.73073863  0.77170029  1  0  0.111789  0  0.957355  0  0  0.121696  0  1.01826  0  0  0.125173  0  1.014789  0  0  0.110181  0.1191  0  1.020962  0
H  H24  1  0.77663182  0.51714318  0.46189878  1  0  0.100884  0  0.93302  0  0  0.113927  0  0.987144  0  0  0.117498  0  0.984562  0  0  0.107317  0.111327  0  0.989051  0
H  H25  1  0.22337680  0.48285314  0.53810841  1  0  0.100864  0  0.933024  0  0  0.113886  0  0.987192  0  0  0.117457  0  0.98461  0  0  0.107273  0.111286  0  0.989103  0
H  H26  1  0.67596728  0.31534396  0.59678365  1  0  0.124302  0  0.964733  0  0  0.136754  0  1.018901  0  0  0.140064  0  1.017403  0  0  0.111468  0.134498  0  1.020044  0
H  H27  1  0.32404124  0.68465336  0.40322246  1  0  0.12426  0  0.964787  0  0  0.136712  0  1.018949  0  0  0.140022  0  1.01745  0  0  0.111453  0.134452  0  1.020097  0
H  H28  1  0.48209528  0.18020185  0.49623850  1  0  0.109901  0  0.949377  0  0  0.121935  0  1.005165  0  0  0.124703  0  1.005465  0  0  0.1069  0.119996  0  1.005067  0
H  H29  1  0.51790100  0.81979739  0.50375876  1  0  0.109968  0  0.949185  0  0  0.121979  0  1.005009  0  0  0.124747  0  1.005308  0  0  0.10691  0.120041  0  1.00491  0
H  H30  1  0.23175335  0.15122303  0.62968256  1  0  0.114601  0  0.928949  0  0  0.125819  0  0.985112  0  0  0.129639  0  0.981638  0  0  0.116237  0.122995  0  0.987721  0
H  H31  1  0.76824054  0.84877519  0.37031036  1  0  0.114447  0  0.929031  0  0  0.125742  0  0.985102  0  0  0.129574  0  0.981626  0  0  0.116172  0.122917  0  0.987715  0
C  C32  1  0.28976264  0.52625782  0.94538894  1  0  0.402092  0  3.75295  0  0  0.332911  0  4.043697  0  0  0.363721  0  4.042789  0  0  0.192721  0.311945  0  4.043556  0
C  C33  1  0.71024427  0.47374447  0.05461648  1  0  0.402116  0  3.752682  0  0  0.332901  0  4.043558  0  0  0.363711  0  4.04265  0  0  0.192693  0.311941  0  4.043409  0
C  C34  1  0.49952253  0.58313692  0.78493093  1  0  -0.170758  0  3.622284  0  0  -0.265188  0  3.856142  0  0  -0.26143  0  3.866024  0  0  -0.129047  -0.267279  0  3.849455  0
C  C35  1  0.50048317  0.41686435  0.21507008  1  0  -0.170957  0  3.622426  0  0  -0.265374  0  3.85621  0  0  -0.261618  0  3.86609  0  0  -0.12909  -0.267468  0  3.849529  0
C  C36  1  0.40988416  0.35302448  0.83463905  1  0  -0.193784  0  3.639907  0  0  -0.29853  0  3.888443  0  0  -0.295768  0  3.899766  0  0  -0.134798  -0.300233  0  3.880717  0
C  C37  1  0.59011905  0.64697777  0.16536010  1  0  -0.193786  0  3.639857  0  0  -0.298454  0  3.888356  0  0  -0.295689  0  3.899673  0  0  -0.134779  -0.300154  0  3.880636  0
C  C38  1  0.19796852  0.00397586  0.86070353  1  0  0.705109  0  3.838721  0  0  0.673842  0  4.130195  0  0  0.716199  0  4.115648  0  0  0.25229  0.644436  0  4.139303  0
C  C39  1  0.80202311  0.99602137  0.13929062  1  0  0.705047  0  3.838767  0  0  0.673656  0  4.130445  0  0  0.716014  0  4.1159  0  0  0.252239  0.644256  0  4.139538  0
C  C40  1  0.34544820  0.01877716  0.78024070  1  0  -0.110497  0  3.771139  0  0  -0.092656  0  4.004876  0  0  -0.106614  0  4.030606  0  0  -0.02235  -0.083258  0  3.987969  0
C  C41  1  0.65454305  0.98122505  0.21975453  1  0  -0.110436  0  3.770919  0  0  -0.092607  0  4.004721  0  0  -0.106561  0  4.030446  0  0  -0.022406  -0.083209  0  3.987813  0
C  C42  1  0.48960689  0.95290437  0.82247619  1  0  -0.028543  0  3.718768  0  0  -0.051566  0  3.96577  0  0  -0.047744  0  3.985418  0  0  -0.069492  -0.054211  0  3.953339  0
C  C43  1  0.51038187  0.04709984  0.17752166  1  0  -0.028582  0  3.71867  0  0  -0.051568  0  3.965647  0  0  -0.047747  0  3.985294  0  0  -0.069446  -0.054215  0  3.953228  0
C  C44  1  0.62972786  0.97011775  0.74953530  1  0  -0.165293  0  3.701355  0  0  -0.189274  0  3.958885  0  0  -0.196321  0  3.977469  0  0  -0.0858  -0.18462  0  3.946408  0
C  C45  1  0.37026562  0.02988747  0.25046489  1  0  -0.165266  0  3.701267  0  0  -0.189321  0  3.958803  0  0  -0.19637  0  3.977387  0  0  -0.085818  -0.184673  0  3.946333  0
C  C46  1  0.62623370  0.05418728  0.63318579  1  0  0.309739  0  3.75642  0  0  0.295421  0  4.022048  0  0  0.309129  0  4.036236  0  0  0.102973  0.286032  0  4.012316  0
C  C47  1  0.37376025  0.94581196  0.36681346  1  0  0.309642  0  3.756554  0  0  0.295418  0  4.022024  0  0  0.30913  0  4.036206  0  0  0.102997  0.286041  0  4.012279  0
C  C48  1  0.80685714  0.17992589  0.48737027  1  0  0.299186  0  3.750372  0  0  0.28679  0  4.013815  0  0  0.300261  0  4.028303  0  0  0.100293  0.277767  0  4.003684  0
C  C49  1  0.19314299  0.82007138  0.51263263  1  0  0.299163  0  3.750298  0  0  0.28663  0  4.013892  0  0  0.300099  0  4.028381  0  0  0.100257  0.277606  0  4.003763  0
C  C50  1  0.91281494  0.16546394  0.38487250  1  0  -0.174561  0  3.71274  0  0  -0.199407  0  3.976069  0  0  -0.206255  0  3.994754  0  0  -0.094731  -0.194898  0  3.963189  0
C  C51  1  0.08718621  0.83453432  0.61512647  1  0  -0.174548  0  3.712807  0  0  -0.199405  0  3.976152  0  0  -0.206249  0  3.994826  0  0  -0.094711  -0.194895  0  3.963271  0
C  C52  1  0.96836681  0.27827733  0.31020923  1  0  -0.034168  0  3.709754  0  0  -0.059227  0  3.956834  0  0  -0.055842  0  3.975615  0  0  -0.074015  -0.060913  0  3.943785  0
C  C53  1  0.03163328  0.72171994  0.68979182  1  0  -0.034011  0  3.709815  0  0  -0.059161  0  3.956877  0  0  -0.055749  0  3.975666  0  0  -0.074023  -0.060847  0  3.943826  0
C  C54  1  0.91930286  0.40547443  0.33763493  1  0  -0.091647  0  3.792224  0  0  -0.070058  0  4.02456  0  0  -0.080868  0  4.048282  0  0  -0.027557  -0.063178  0  4.008573  0
C  C55  1  0.08070094  0.59452186  0.66236884  1  0  -0.091863  0  3.79246  0  0  -0.070039  0  4.024516  0  0  -0.080847  0  4.04823  0  0  -0.02753  -0.063159  0  4.00853  0
C  C56  1  0.81204494  0.41809308  0.44017078  1  0  -0.04064  0  3.747448  0  0  -0.064421  0  3.998166  0  0  -0.060907  0  4.016363  0  0  -0.079056  -0.066412  0  3.985708  0
C  C57  1  0.18796586  0.58190422  0.55983148  1  0  -0.040596  0  3.747442  0  0  -0.064452  0  3.998114  0  0  -0.060941  0  4.01631  0  0  -0.079057  -0.066447  0  3.985659  0
C  C58  1  0.75452427  0.30622587  0.51475498  1  0  -0.196889  0  3.758413  0  0  -0.2176  0  4.011475  0  0  -0.224505  0  4.029985  0  0  -0.099024  -0.213006  0  3.998931  0
C  C59  1  0.24548173  0.69377242  0.48524834  1  0  -0.196818  0  3.758451  0  0  -0.217472  0  4.011513  0  0  -0.224376  0  4.030027  0  0  -0.098978  -0.212878  0  3.998967  0
C  C60  1  0.97900535  0.52514779  0.25898651  1  0  0.617626  0  3.91277  0  0  0.580474  0  4.215691  0  0  0.617533  0  4.209109  0  0  0.196559  0.555218  0  4.218807  0
C  C61  1  0.02099593  0.47484948  0.74101447  1  0  0.617677  0  3.912839  0  0  0.580484  0  4.215734  0  0  0.617541  0  4.209153  0  0  0.196621  0.555228  0  4.218842  0
C  C62  1  0.48326111  0.11828592  0.58850302  1  0  -0.201202  0  3.759297  0  0  -0.220938  0  4.017002  0  0  -0.229388  0  4.037711  0  0  -0.099888  -0.215203  0  4.003023  0
C  C63  1  0.51673380  0.88171530  0.41149307  1  0  -0.201273  0  3.759234  0  0  -0.221054  0  4.016952  0  0  -0.229504  0  4.037659  0  0  -0.099889  -0.215323  0  4.002972  0
C  C64  1  0.34371535  0.10095421  0.66236714  1  0  -0.019769  0  3.714619  0  0  -0.046745  0  3.968704  0  0  -0.0415  0  3.985947  0  0  -0.07074  -0.050204  0  3.956989  0
C  C65  1  0.65627933  0.89904899  0.33762588  1  0  -0.019614  0  3.714618  0  0  -0.046615  0  3.968652  0  0  -0.041386  0  3.985912  0  0  -0.070656  -0.050078  0  3.956941  0
N  N66  1  0.39645709  0.48948466  0.86008714  1  0  -0.066237  0  3.501182  0  0  0.038177  0  3.731831  0  0  0.017273  0  3.75806  0  0  -0.266674  0.052318  0  3.713633  0
N  N67  1  0.60354857  0.51051761  0.13991557  1  0  -0.066242  0  3.501132  0  0  0.038183  0  3.731763  0  0  0.017279  0  3.757991  0  0  -0.266675  0.052322  0  3.713565  0
O  O68  1  0.27069293  0.64350477  0.97059384  1  0  -0.587175  0  2.123047  0  0  -0.567209  0  2.406512  0  0  -0.599376  0  2.404002  0  0  -0.356605  -0.544063  0  2.407288  0
O  O69  1  0.72931910  0.35649456  0.02941731  1  0  -0.587163  0  2.122943  0  0  -0.567161  0  2.406365  0  0  -0.59932  0  2.403852  0  0  -0.356539  -0.544006  0  2.40714  0
O  O70  1  0.20252314  0.92412681  0.96460537  1  0  -0.668398  0  2.094294  0  0  -0.658788  0  2.376047  0  0  -0.693274  0  2.366163  0  0  -0.371175  -0.633356  0  2.381673  0
O  O71  1  0.79746859  0.07586943  0.03538984  1  0  -0.668379  0  2.094284  0  0  -0.658746  0  2.376097  0  0  -0.693225  0  2.366215  0  0  -0.371214  -0.633311  0  2.381729  0
O  O72  1  0.08447105  0.51484245  0.16929066  1  0  -0.652148  0  2.002802  0  0  -0.635182  0  2.262187  0  0  -0.668188  0  2.258363  0  0  -0.353808  -0.611259  0  2.263685  0
O  O73  1  0.91553142  0.48515483  0.83071025  1  0  -0.652142  0  2.002766  0  0  -0.63516  0  2.262083  0  0  -0.668157  0  2.258252  0  0  -0.353835  -0.611228  0  2.263582  0
O  O74  1  0.23520250  0.76493785  0.20712226  1  0  -0.712685  0  1.642836  0  0  -0.717106  0  1.94094  0  0  -0.738402  0  1.929407  0  0  -0.758243  -0.704062  0  1.950066  0
O  O75  1  0.76479204  0.23507038  0.79288296  1  0  -0.712704  0  1.642907  0  0  -0.717105  0  1.940925  0  0  -0.738371  0  1.929359  0  0  -0.7582  -0.704085  0  1.950151  0
O  O76  1  0.92526140  0.64218749  0.27696030  1  0  -0.635437  0  1.978195  0  0  -0.621593  0  2.236773  0  0  -0.654484  0  2.234322  0  0  -0.351799  -0.597855  0  2.237205  0
O  O77  1  0.07474112  0.35780980  0.72304339  1  0  -0.635386  0  1.978116  0  0  -0.621573  0  2.236714  0  0  -0.654459  0  2.234265  0  0  -0.351825  -0.59783  0  2.237152  0
O  O78  1  0.07019916  0.07260880  0.82454693  1  0  -0.665917  0  2.053138  0  0  -0.656876  0  2.331903  0  0  -0.692057  0  2.322275  0  0  -0.376348  -0.631056  0  2.337268  0
O  O79  1  0.92979473  0.92739043  0.17544955  1  0  -0.665924  0  2.053195  0  0  -0.656807  0  2.332005  0  0  -0.691999  0  2.322383  0  0  -0.376314  -0.630994  0  2.337354  0
O  O80  1  0.76783767  0.06336873  0.56327718  1  0  -0.287654  0  2.365496  0  0  -0.218268  0  2.591208  0  0  -0.238695  0  2.594106  0  0  -0.135419  -0.203523  0  2.588544  0
O  O81  1  0.23216001  0.93662853  0.43672216  1  0  -0.287588  0  2.365538  0  0  -0.218115  0  2.59117  0  0  -0.23854  0  2.594068  0  0  -0.135417  -0.203378  0  2.588506  0
O  O82  1  0.92437407  0.74898363  0.99237018  1  0  -0.738516  0  1.558457  0  0  -0.743009  0  1.844156  0  0  -0.763901  0  1.829578  0  0  -0.763374  -0.730069  0  1.855117  0
O  O83  1  0.07562378  0.25101062  0.00762592  1  0  -0.738443  0  1.558642  0  0  -0.743001  0  1.844401  0  0  -0.763875  0  1.829816  0  0  -0.763401  -0.730044  0  1.855362  0
