# generated using pymatgen
data_NiH32C46(N2F)4
_symmetry_space_group_name_H-M   'P 1'
_cell_length_a   12.98464346
_cell_length_b   14.08810720
_cell_length_c   14.11883565
_cell_angle_alpha   89.99997694
_cell_angle_beta   90.00019277
_cell_angle_gamma   114.67340221
_symmetry_Int_Tables_number   1
_chemical_formula_structural   NiH32C46(N2F)4
_chemical_formula_sum   'Ni2 H64 C92 N16 F8'
_cell_volume   2346.94586840
_cell_formula_units_Z   2
loop_
 _symmetry_equiv_pos_site_id
 _symmetry_equiv_pos_as_xyz
  1  'x, y, z'
loop_
 _atom_site_type_symbol
 _atom_site_label
 _atom_site_symmetry_multiplicity
 _atom_site_fract_x
 _atom_site_fract_y
 _atom_site_fract_z
 _atom_site_occupancy
 _atom_site_pbe_bader_charge
 _atom_site_pbe_bader_spin_density
 _atom_site_pbe_cm5_charge
 _atom_site_pbe_ddec_charge
 _atom_site_pbe_ddec_spin_density
 _atom_site_pbe_ddec_sum_bond_order
 _atom_site_pbe_magmom
Ni  Ni0  1  0.00000035  0.00000078  0.00000000  1  1.057511  0.000315  0.647677  0.493613  -0.000429  2.815558  0.0
Ni  Ni1  1  0.00000077  0.49999965  0.50000147  1  1.057418  -0.000309  0.647674  0.493616  0.000435  2.81565  0.0
H  H2  1  0.65090733  0.97320471  0.79665007  1  0.125587  0.000643  0.099588  0.117292  0.000401  1.039985  0.0
H  H3  1  0.34909201  0.52680082  0.29665238  1  0.125474  -0.000643  0.0996  0.117319  -0.000401  1.039902  0.0
H  H4  1  0.34909579  0.02679596  0.20334875  1  0.125577  0.000643  0.09957  0.117281  0.000401  1.039937  0.0
H  H5  1  0.65090725  0.47319985  0.70334787  1  0.125568  -0.000643  0.099595  0.117289  -0.000401  1.039994  0.0
H  H6  1  0.82340096  0.15281484  0.73966989  1  0.088214  0.000702  0.102516  0.123638  0.000429  1.0137  0.0
H  H7  1  0.17659722  0.34719036  0.23966940  1  0.088155  -0.000702  0.102529  0.123613  -0.000429  1.013803  0.0
H  H8  1  0.17660104  0.84718505  0.26032751  1  0.088249  0.000702  0.102518  0.123647  0.000429  1.013727  0.0
H  H9  1  0.82340086  0.65281108  0.76032801  1  0.088217  -0.000702  0.102524  0.123632  -0.000429  1.013839  0.0
H  H10  1  0.25109604  0.35703852  0.83549839  1  0.060374  -0.000637  0.100896  0.118919  -0.000381  1.040257  0.0
H  H11  1  0.74890615  0.14295432  0.33550543  1  0.060214  0.000637  0.100897  0.118948  0.000381  1.040249  0.0
H  H12  1  0.74890364  0.64296137  0.16450114  1  0.060386  -0.000637  0.100898  0.118936  -0.000381  1.040245  0.0
H  H13  1  0.25109276  0.85704556  0.66449552  1  0.060196  0.000637  0.100886  0.118929  0.000381  1.040278  0.0
H  H14  1  0.39363690  0.32116308  0.95540369  1  0.056078  -0.000752  0.100508  0.117831  -0.000459  1.022446  0.0
H  H15  1  0.60636559  0.17883459  0.45540461  1  0.056083  0.000752  0.1005  0.117813  0.000459  1.022495  0.0
H  H16  1  0.60636391  0.67883759  0.04459584  1  0.056095  -0.000752  0.100503  0.117847  -0.000459  1.022428  0.0
H  H17  1  0.39363283  0.82116764  0.54459422  1  0.056081  0.000752  0.100518  0.117844  0.000459  1.022463  0.0
H  H18  1  0.55032021  0.93492889  0.98184933  1  0.105101  2e-06  0.107974  0.137221  -0.0  1.007686  0.0
H  H19  1  0.44967688  0.56507531  0.48185476  1  0.105346  -2e-06  0.10796  0.137141  0.0  1.007783  0.0
H  H20  1  0.44967793  0.06507100  0.01815091  1  0.105104  2e-06  0.107993  0.137233  -0.0  1.007735  0.0
H  H21  1  0.55032126  0.43492457  0.51814689  1  0.105273  -2e-06  0.10798  0.137168  0.0  1.007712  0.0
H  H22  1  0.61384882  0.69169582  0.84444297  1  0.082917  -2.9e-05  0.10422  0.116897  -2.2e-05  1.025313  0.0
H  H23  1  0.38614671  0.80830430  0.34444173  1  0.083281  2.9e-05  0.104229  0.116919  2.2e-05  1.025254  0.0
H  H24  1  0.38615199  0.30830485  0.15555657  1  0.083006  -2.9e-05  0.104225  0.116903  -2.2e-05  1.025325  0.0
H  H25  1  0.61385304  0.19169402  0.65555710  1  0.08335  2.9e-05  0.104213  0.116914  2.2e-05  1.025274  0.0
H  H26  1  0.54674351  0.56967232  0.72721792  1  0.046927  -5.8e-05  0.09108  0.094771  -3.1e-05  1.001316  0.0
H  H27  1  0.45324948  0.93032141  0.22721259  1  0.046899  5.8e-05  0.091044  0.09475  3.1e-05  1.001319  0.0
H  H28  1  0.45325842  0.43032913  0.27278232  1  0.046959  -5.8e-05  0.091067  0.094761  -3.1e-05  1.001257  0.0
H  H29  1  0.54675174  0.06967848  0.77278765  1  0.046976  5.8e-05  0.091059  0.094794  3.1e-05  1.001288  0.0
H  H30  1  0.42768852  0.44845663  0.74647360  1  0.061452  -4.7e-05  0.100479  0.110206  -3.6e-05  1.013044  0.0
H  H31  1  0.57230315  0.05153920  0.24646738  1  0.061463  4.7e-05  0.100499  0.110273  3.6e-05  1.012974  0.0
H  H32  1  0.57231306  0.55154404  0.25352593  1  0.061439  -4.7e-05  0.100483  0.110209  -3.6e-05  1.013041  0.0
H  H33  1  0.42769891  0.94845913  0.75353286  1  0.061453  4.7e-05  0.100502  0.110298  3.6e-05  1.012943  0.0
H  H34  1  0.51013052  0.51876557  0.84487772  1  0.052863  -9.6e-05  0.104102  0.11742  -6.8e-05  0.980529  0.0
H  H35  1  0.48986241  0.98123220  0.34487177  1  0.052722  9.6e-05  0.104089  0.117408  6.8e-05  0.980508  0.0
H  H36  1  0.48986986  0.48123588  0.15512181  1  0.052852  -9.6e-05  0.104104  0.117422  -6.8e-05  0.98052  0.0
H  H37  1  0.51013924  0.01876691  0.65512847  1  0.052606  9.6e-05  0.104087  0.117418  6.8e-05  0.980516  0.0
H  H38  1  0.27288245  0.60435825  0.71053056  1  0.091137  1e-06  0.09722  0.117312  0.0  1.03966  0.0
H  H39  1  0.72711153  0.89563780  0.21052893  1  0.091226  -1e-06  0.097232  0.117323  -0.0  1.039686  0.0
H  H40  1  0.72711723  0.39564164  0.28946826  1  0.091141  1e-06  0.097208  0.117282  0.0  1.039713  0.0
H  H41  1  0.27288976  0.10436052  0.78947060  1  0.091227  -1e-06  0.097178  0.117211  -0.0  1.039807  0.0
H  H42  1  0.29214498  0.49151287  0.67640670  1  0.056883  -1e-05  0.098346  0.11568  -5e-06  1.009117  0.0
H  H43  1  0.70784906  0.00848366  0.17640304  1  0.056928  1e-05  0.098344  0.115686  5e-06  1.009123  0.0
H  H44  1  0.70785583  0.50848780  0.32359213  1  0.056851  -1e-05  0.09836  0.115707  -5e-06  1.009068  0.0
H  H45  1  0.29215069  0.99151466  0.82359720  1  0.056973  1e-05  0.098331  0.115656  5e-06  1.009149  0.0
H  H46  1  0.39377176  0.61816316  0.64243802  1  0.047056  -2e-06  0.086592  0.09534  -0.0  1.012487  0.0
H  H47  1  0.60621962  0.88183281  0.14243602  1  0.047312  2e-06  0.086588  0.09533  0.0  1.012451  0.0
H  H48  1  0.60622828  0.38183751  0.35756080  1  0.047077  -2e-06  0.086601  0.095363  -0.0  1.012456  0.0
H  H49  1  0.39378083  0.11816708  0.85756281  1  0.047324  2e-06  0.086594  0.095315  0.0  1.012423  0.0
H  H50  1  0.03092736  0.38801400  0.86089532  1  0.082241  -1.3e-05  0.108101  0.118543  -7e-06  0.98603  0.0
H  H51  1  0.96906472  0.11198353  0.36089739  1  0.082176  1.3e-05  0.108091  0.118531  6e-06  0.986018  0.0
H  H52  1  0.96907120  0.61198510  0.13910421  1  0.082219  -1.3e-05  0.108103  0.118551  -7e-06  0.98602  0.0
H  H53  1  0.03092893  0.88801322  0.63910143  1  0.082224  1.3e-05  0.108083  0.118511  6e-06  0.986049  0.0
H  H54  1  0.03943887  0.50939329  0.72806707  1  0.088037  6.7e-05  0.110145  0.074798  4.5e-05  1.019724  0.0
H  H55  1  0.96054318  0.99059495  0.22807463  1  0.087833  -6.7e-05  0.110136  0.074778  -4.5e-05  1.019568  0.0
H  H56  1  0.96056460  0.49060816  0.27193175  1  0.088149  6.7e-05  0.110146  0.07478  4.5e-05  1.019726  0.0
H  H57  1  0.03944781  0.00940101  0.77192419  1  0.087856  -6.7e-05  0.110111  0.074808  -4.5e-05  1.019593  0.0
H  H58  1  0.06469702  0.30734018  0.52683951  1  0.086463  -0.000119  0.111066  0.078483  -7.5e-05  1.012721  0.0
H  H59  1  0.93529694  0.19265227  0.02684003  1  0.086518  0.000119  0.111054  0.078437  7.5e-05  1.012579  0.0
H  H60  1  0.93530420  0.69265971  0.47316002  1  0.086469  -0.000119  0.111058  0.078485  -7.5e-05  1.012743  0.0
H  H61  1  0.06470107  0.80735074  0.97315950  1  0.086426  0.000119  0.111024  0.07842  7.5e-05  1.012674  0.0
H  H62  1  0.05453858  0.17585658  0.65047508  1  0.078527  -3.3e-05  0.104531  0.116194  -2.1e-05  1.001813  0.0
H  H63  1  0.94547141  0.32414307  0.15047345  1  0.078778  3.3e-05  0.104537  0.11617  2.1e-05  1.001852  0.0
H  H64  1  0.94546265  0.82414331  0.34952517  1  0.078547  -3.3e-05  0.104541  0.116227  -2.1e-05  1.001803  0.0
H  H65  1  0.05453046  0.67585994  0.84952892  1  0.078747  3.3e-05  0.104565  0.116195  2.1e-05  1.001886  0.0
C  C66  1  0.71715334  0.86968552  0.94151838  1  -0.005478  -4.6e-05  -0.001108  -0.067155  -4e-05  3.947314  0.0
C  C67  1  0.28284435  0.63031862  0.44152043  1  -0.005532  4.6e-05  -0.001055  -0.067098  4e-05  3.947236  0.0
C  C68  1  0.28284817  0.13031671  0.05848116  1  -0.005371  -4.6e-05  -0.001091  -0.067162  -4e-05  3.94728  0.0
C  C69  1  0.71715568  0.36968204  0.55848123  1  -0.00558  4.6e-05  -0.001052  -0.067136  4e-05  3.947243  0.0
C  C70  1  0.78156474  0.96412659  0.89601895  1  0.432489  0.001411  0.090262  0.184439  0.001424  4.035979  0.001
C  C71  1  0.21843431  0.53587750  0.39601943  1  0.432975  -0.001411  0.090243  0.18436  -0.001424  4.035883  -0.001
C  C72  1  0.21843607  0.03587408  0.10397987  1  0.43315  0.001411  0.090253  0.184418  0.001423  4.035891  0.001
C  C73  1  0.78156537  0.46412238  0.60398152  1  0.432979  -0.001411  0.090235  0.184428  -0.001424  4.035893  -0.001
C  C74  1  0.73727921  0.00817694  0.82261147  1  -0.078529  0.00177  -0.110443  -0.188079  0.001463  4.01047  0.001
C  C75  1  0.26271671  0.49182601  0.32260977  1  -0.078577  -0.001771  -0.110529  -0.188165  -0.001463  4.010557  -0.001
C  C76  1  0.26271977  0.99182138  0.17738735  1  -0.078742  0.00177  -0.110409  -0.188007  0.001463  4.010669  0.001
C  C77  1  0.73728031  0.50817309  0.67739047  1  -0.078685  -0.001771  -0.110487  -0.188109  -0.001463  4.010362  -0.001
C  C78  1  0.82424543  0.09815295  0.79351217  1  -0.131763  0.00167  -0.111896  -0.19203  0.001366  4.009958  0.001
C  C79  1  0.17575234  0.40184920  0.29351165  1  -0.136149  -0.001672  -0.111893  -0.191977  -0.001367  4.010045  -0.001
C  C80  1  0.17575721  0.90185007  0.20648595  1  -0.132037  0.00167  -0.111891  -0.192095  0.001366  4.01035  0.001
C  C81  1  0.82424911  0.59815459  0.70649001  1  -0.132012  -0.00167  -0.111914  -0.192047  -0.001366  4.009925  -0.001
C  C82  1  0.92204948  0.10884172  0.84896661  1  0.406904  0.001652  0.085101  0.16424  0.001734  4.084816  0.002
C  C83  1  0.07794775  0.39116049  0.34896578  1  0.411247  -0.00165  0.08512  0.164268  -0.001734  4.084754  -0.002
C  C84  1  0.07795287  0.89115895  0.15103293  1  0.406761  0.001652  0.085097  0.164347  0.001734  4.084746  0.002
C  C85  1  0.92205187  0.60884096  0.65103375  1  0.407083  -0.001652  0.085142  0.164335  -0.001734  4.084776  -0.002
C  C86  1  0.02816044  0.19254474  0.84013160  1  0.010578  8e-06  -0.008049  -0.09609  1.4e-05  4.004483  0.0
C  C87  1  0.97184003  0.30745279  0.34013077  1  0.010862  -9e-06  -0.008031  -0.096158  -1.4e-05  4.004346  0.0
C  C88  1  0.97184072  0.80745671  0.15986793  1  0.010798  8e-06  -0.008069  -0.096199  1.4e-05  4.004457  0.0
C  C89  1  0.02816007  0.69254632  0.65987159  1  0.010849  -8e-06  -0.008091  -0.096233  -1.4e-05  4.004423  0.0
C  C90  1  0.12286703  0.20493635  0.89410575  1  0.417576  -0.001523  0.086453  0.171172  -0.001566  4.076694  -0.001
C  C91  1  0.87713331  0.29506046  0.39410817  1  0.417445  0.001523  0.086441  0.171252  0.001566  4.076488  0.001
C  C92  1  0.87713378  0.79506432  0.10589449  1  0.417509  -0.001523  0.086436  0.171162  -0.001566  4.076678  -0.001
C  C93  1  0.12286756  0.70493865  0.60589491  1  0.417456  0.001523  0.086452  0.171217  0.001566  4.076495  0.001
C  C94  1  0.23246116  0.29162041  0.88334368  1  -0.01312  -0.001797  -0.109705  -0.188317  -0.001503  3.997752  -0.001
C  C95  1  0.76754116  0.20837405  0.38334792  1  -0.012763  0.001798  -0.109644  -0.18828  0.001503  3.997613  0.001
C  C96  1  0.76753964  0.70838026  0.11665585  1  -0.013044  -0.001797  -0.109683  -0.188284  -0.001503  3.997681  -0.001
C  C97  1  0.23245894  0.79162505  0.61665445  1  -0.01283  0.001798  -0.109662  -0.188306  0.001503  3.997657  0.001
C  C98  1  0.30396162  0.27390245  0.94424471  1  -0.055673  -0.00177  -0.109198  -0.188466  -0.001498  4.007265  -0.001
C  C99  1  0.69603810  0.22609598  0.44424447  1  -0.055895  0.00177  -0.109208  -0.188511  0.001498  4.007161  0.001
C  C100  1  0.69603835  0.72609977  0.05575624  1  -0.055729  -0.00177  -0.109207  -0.188506  -0.001498  4.007223  -0.001
C  C101  1  0.30396152  0.77390547  0.55575648  1  -0.055848  0.00177  -0.109253  -0.188537  0.001498  4.007109  0.001
C  C102  1  0.23798054  0.17671659  0.99249507  1  0.414503  -0.001564  0.090559  0.182295  -0.001524  4.040616  -0.001
C  C103  1  0.76202043  0.32328424  0.49249428  1  0.414631  0.001564  0.090571  0.182366  0.001524  4.040522  0.001
C  C104  1  0.76202062  0.82328486  0.00750518  1  0.414851  -0.001564  0.090533  0.182176  -0.001524  4.040626  -0.001
C  C105  1  0.23797960  0.67671643  0.50750809  1  0.414638  0.001564  0.090607  0.182385  0.001524  4.04049  0.001
C  C106  1  0.59453263  0.81630514  0.91742839  1  0.051846  6e-06  -0.007254  0.118467  6e-06  4.05635  0.0
C  C107  1  0.40546503  0.68369741  0.41742797  1  0.051988  -6e-06  -0.007281  0.118355  -6e-06  4.056481  0.0
C  C108  1  0.40546705  0.18369474  0.08257043  1  0.051801  6e-06  -0.007294  0.118412  6e-06  4.056461  0.0
C  C109  1  0.59453507  0.31630169  0.58257227  1  0.051978  -6e-06  -0.007284  0.118393  -6e-06  4.05641  0.0
C  C110  1  0.52078685  0.86157439  0.94292895  1  0.004231  -6e-06  -0.115071  -0.287158  -9e-06  4.032006  0.0
C  C111  1  0.47920979  0.63842741  0.44293374  1  0.004001  6e-06  -0.115038  -0.286989  9e-06  4.031982  0.0
C  C112  1  0.47921290  0.13842393  0.05707129  1  0.004248  -6e-06  -0.115055  -0.287137  -9e-06  4.032097  0.0
C  C113  1  0.52078996  0.36157091  0.55706792  1  0.003724  6e-06  -0.11505  -0.286972  9e-06  4.031884  0.0
C  C114  1  0.40759502  0.81027422  0.91699818  1  0.398838  3e-06  0.078687  0.179901  -0.0  4.150962  0.0
C  C115  1  0.59240193  0.68972677  0.41700259  1  0.399138  -3e-06  0.078735  0.180029  0.0  4.150798  0.0
C  C116  1  0.59240431  0.18972488  0.08300135  1  0.398804  3e-06  0.078714  0.179997  -0.0  4.15085  0.0
C  C117  1  0.40759817  0.31027234  0.58299978  1  0.399469  -3e-06  0.078687  0.179837  0.0  4.150938  0.0
C  C118  1  0.36652394  0.71680445  0.86673407  1  0.527444  -1e-05  0.077999  0.072096  -9e-06  4.040769  0.0
C  C119  1  0.63347274  0.78319805  0.36673432  1  0.527325  1e-05  0.077988  0.071898  9e-06  4.040782  0.0
C  C120  1  0.63347728  0.28319544  0.13326475  1  0.527534  -1e-05  0.077971  0.071992  -9e-06  4.040649  0.0
C  C121  1  0.36652737  0.21680106  0.63326734  1  0.527368  1e-05  0.077996  0.071999  9e-06  4.040951  0.0
C  C122  1  0.43939412  0.67063360  0.83798749  1  0.405147  -7e-06  0.087621  0.102269  -1e-06  4.071879  0.0
C  C123  1  0.56059955  0.82936417  0.33798679  1  0.404976  7e-06  0.087611  0.10237  1e-06  4.071883  0.0
C  C124  1  0.56060633  0.32936629  0.16201133  1  0.405084  -7e-06  0.08763  0.102359  -1e-06  4.071751  0.0
C  C125  1  0.43940174  0.17063416  0.66201345  1  0.405151  7e-06  0.087592  0.102372  1e-06  4.072007  0.0
C  C126  1  0.55371078  0.72293889  0.86589931  1  -0.030761  -2.3e-05  -0.108625  -0.251944  -1.1e-05  3.969969  0.0
C  C127  1  0.44628561  0.77706126  0.36589898  1  -0.031321  2.3e-05  -0.108635  -0.251997  1.1e-05  3.970124  0.0
C  C128  1  0.44628890  0.27706100  0.13410022  1  -0.030834  -2.3e-05  -0.108629  -0.252007  -1.1e-05  3.970056  0.0
C  C129  1  0.55371449  0.22293785  0.63410056  1  -0.031526  2.3e-05  -0.108617  -0.252011  1.1e-05  3.970139  0.0
C  C130  1  0.47542676  0.52683960  0.77594705  1  0.241914  -0.000122  -0.138239  -0.262408  -0.000141  3.95602  0.0
C  C131  1  0.52456595  0.97315654  0.27594192  1  0.242119  0.000122  -0.138175  -0.2624  0.000141  3.955842  0.0
C  C132  1  0.52457405  0.47316107  0.22405248  1  0.241913  -0.000122  -0.138225  -0.262387  -0.000141  3.955955  0.0
C  C133  1  0.47543569  0.02684257  0.72405761  1  0.242034  0.000122  -0.138198  -0.262478  0.000141  3.955767  0.0
C  C134  1  0.33587970  0.57296412  0.69959067  1  0.227156  -1.6e-05  -0.148357  -0.274038  -1.9e-05  3.921693  0.0
C  C135  1  0.66411494  0.92703348  0.19959025  1  0.226642  1.6e-05  -0.148357  -0.274098  1.9e-05  3.921675  0.0
C  C136  1  0.66411998  0.42703576  0.30040815  1  0.227193  -1.6e-05  -0.148343  -0.274034  -1.9e-05  3.921681  0.0
C  C137  1  0.33588558  0.07296485  0.80040929  1  0.226594  1.6e-05  -0.148288  -0.273891  1.9e-05  3.921667  0.0
C  C138  1  0.04034646  0.27115834  0.76578341  1  -0.005995  -5.1e-05  0.011522  0.1295  -4.3e-05  4.013348  0.0
C  C139  1  0.95965300  0.22883753  0.26578399  1  -0.005771  5.1e-05  0.011568  0.129601  4.3e-05  4.013275  0.0
C  C140  1  0.95965435  0.72884233  0.23421471  1  -0.005841  -5.1e-05  0.011534  0.129554  -4.3e-05  4.013357  0.0
C  C141  1  0.04034633  0.77116157  0.73421696  1  -0.005805  5.1e-05  0.01161  0.129726  4.3e-05  4.013044  0.0
C  C142  1  0.03810048  0.36714294  0.78760176  1  -0.036625  -0.000165  -0.086173  -0.186408  -0.000116  3.950152  0.0
C  C143  1  0.96189233  0.13284826  0.28760522  1  -0.036901  0.000165  -0.086302  -0.186579  0.000116  3.950021  0.0
C  C144  1  0.96189885  0.63285616  0.21239707  1  -0.036744  -0.000165  -0.086194  -0.186445  -0.000116  3.950144  0.0
C  C145  1  0.03810364  0.86714850  0.71239432  1  -0.036858  0.000165  -0.086248  -0.186505  0.000116  3.950163  0.0
C  C146  1  0.04319191  0.43471874  0.71396962  1  0.511638  0.000251  0.045865  0.101114  0.000161  3.975928  0.0
C  C147  1  0.95679863  0.06527315  0.21397238  1  0.512101  -0.000251  0.045955  0.101276  -0.000161  3.97568  0.0
C  C148  1  0.95680931  0.56528115  0.28602992  1  0.511645  0.000251  0.045854  0.101126  0.000161  3.97591  0.0
C  C149  1  0.04319692  0.93472439  0.78602574  1  0.51201  -0.000251  0.045892  0.101095  -0.000161  3.97594  0.0
C  C150  1  0.05655910  0.32190974  0.60182798  1  0.503931  -0.000315  0.045619  0.100917  -0.000228  3.972682  0.0
C  C151  1  0.94343672  0.17808280  0.10183278  1  0.504321  0.000314  0.045567  0.100921  0.000228  3.97261  0.0
C  C152  1  0.94344143  0.67808858  0.39817156  1  0.503816  -0.000315  0.045622  0.100923  -0.000228  3.972769  0.0
C  C153  1  0.05656212  0.82191865  0.89816959  1  0.504287  0.000315  0.045613  0.100974  0.000228  3.97261  0.0
C  C154  1  0.05080999  0.24905854  0.67050999  1  -0.059519  0.000254  -0.087868  -0.189123  0.000198  3.959557  0.0
C  C155  1  0.94919173  0.25093800  0.17050911  1  -0.059971  -0.000254  -0.087846  -0.189083  -0.000198  3.959557  0.0
C  C156  1  0.94919011  0.75094057  0.32948883  1  -0.059553  0.000254  -0.087864  -0.18916  0.000198  3.959579  0.0
C  C157  1  0.05081055  0.74906423  0.82949325  1  -0.059891  -0.000254  -0.087879  -0.189136  -0.000198  3.959475  0.0
N  N158  1  0.89479350  0.02635009  0.91106660  1  -1.135414  0.044611  -0.3463  -0.313065  0.036742  3.463612  0.035
N  N159  1  0.10520524  0.47364986  0.41106654  1  -1.135457  -0.044616  -0.346337  -0.31309  -0.036746  3.463605  -0.035
N  N160  1  0.10520695  0.97364980  0.08893364  1  -1.135411  0.044609  -0.346318  -0.313141  0.03674  3.463723  0.035
N  N161  1  0.89479444  0.52635003  0.58893583  1  -1.135514  -0.044614  -0.346324  -0.313134  -0.036744  3.463659  -0.035
N  N162  1  0.12720227  0.13591092  0.96147039  1  -1.140592  -0.045669  -0.344782  -0.314744  -0.037834  3.452443  -0.037
N  N163  1  0.87279935  0.36408988  0.46146852  1  -1.14057  0.045675  -0.344817  -0.314857  0.037839  3.452266  0.037
N  N164  1  0.87279777  0.86408975  0.03853056  1  -1.140671  -0.045669  -0.344784  -0.314692  -0.037834  3.452373  -0.037
N  N165  1  0.12720153  0.63590923  0.53853456  1  -1.14056  0.045675  -0.344821  -0.31484  0.037838  3.45233  0.037
N  N166  1  0.39850979  0.57710489  0.78705974  1  -1.111141  -5.5e-05  -0.314852  -0.037626  -3.1e-05  3.603712  0.0
N  N167  1  0.60148402  0.92289360  0.28705770  1  -1.111012  5.5e-05  -0.31494  -0.037688  3.1e-05  3.603579  0.0
N  N168  1  0.60149066  0.42289500  0.21293909  1  -1.111153  -5.5e-05  -0.314902  -0.037715  -3.1e-05  3.603728  0.0
N  N169  1  0.39851608  0.07710551  0.71294041  1  -1.111019  5.5e-05  -0.314935  -0.037755  3.1e-05  3.603551  0.0
N  N170  1  0.05160308  0.41275057  0.62269723  1  -1.214146  -0.000668  -0.312295  -0.236308  -0.000533  3.483787  0.0
N  N171  1  0.94838595  0.08724042  0.12269996  1  -1.214599  0.000666  -0.312254  -0.236312  0.000531  3.48375  0.0
N  N172  1  0.94839737  0.58724932  0.37730301  1  -1.214132  -0.000669  -0.312292  -0.236309  -0.000533  3.483823  0.0
N  N173  1  0.05161142  0.91275946  0.87729886  1  -1.214523  0.000666  -0.312242  -0.236294  0.000531  3.483737  0.0
F  F174  1  0.25318403  0.66904240  0.84852702  1  -0.637385  -3e-06  -0.089921  -0.117607  -1e-06  1.417468  0.0
F  F175  1  0.74681193  0.83095695  0.34852902  1  -0.637298  3e-06  -0.089891  -0.117518  1e-06  1.417481  0.0
F  F176  1  0.74681748  0.33095983  0.15146755  1  -0.637402  -3e-06  -0.089925  -0.117566  -1e-06  1.417477  0.0
F  F177  1  0.25318852  0.16904294  0.65147689  1  -0.637302  3e-06  -0.089876  -0.117541  1e-06  1.417556  0.0
F  F178  1  0.33307638  0.85126443  0.94225085  1  -0.637003  3e-06  -0.100708  -0.133103  1e-06  1.357034  0.0
F  F179  1  0.66692210  0.64873972  0.44225834  1  -0.637003  -3e-06  -0.100746  -0.133157  -1e-06  1.356963  0.0
F  F180  1  0.66692267  0.14873233  0.05775010  1  -0.636991  3e-06  -0.100705  -0.133132  0.0  1.356982  0.0
F  F181  1  0.33307794  0.35126095  0.55774545  1  -0.636937  -3e-06  -0.100704  -0.13306  -1e-06  1.357025  0.0
