# generated using pymatgen
data_ZnH12C18N2ClO2
_symmetry_space_group_name_H-M   'P 1'
_cell_length_a   9.70083287
_cell_length_b   10.28689932
_cell_length_c   10.28686827
_cell_angle_alpha   66.92152644
_cell_angle_beta   61.87006951
_cell_angle_gamma   61.87006035
_symmetry_Int_Tables_number   1
_chemical_formula_structural   ZnH12C18N2ClO2
_chemical_formula_sum   'Zn2 H24 C36 N4 Cl2 O4'
_cell_volume   779.11657434
_cell_formula_units_Z   2
loop_
 _symmetry_equiv_pos_site_id
 _symmetry_equiv_pos_as_xyz
  1  'x, y, z'
loop_
 _atom_site_type_symbol
 _atom_site_label
 _atom_site_symmetry_multiplicity
 _atom_site_fract_x
 _atom_site_fract_y
 _atom_site_fract_z
 _atom_site_occupancy
 _atom_site_pbe_bader_spin_density
 _atom_site_pbe_cm5_charge
 _atom_site_pbe_ddec_charge
 _atom_site_pbe_ddec_spin_density
 _atom_site_pbe_ddec_sum_bond_order
 _atom_site_pbe_magmom
Zn  Zn0  1  0.88817591  0.61181588  0.61181544  1  0  0.586233  0.676652  0  2.4539  0
Zn  Zn1  1  0.11182242  0.38818521  0.38818447  1  0  0.586221  0.676655  0  2.453819  0
H  H2  1  0.67640944  0.04291310  0.60427419  1  0  0.100081  0.104367  0  1.028848  0
H  H3  1  0.67641138  0.60427449  0.04291317  1  0  0.100077  0.104358  0  1.02885  0
H  H4  1  0.32359116  0.39572474  0.95708674  1  0  0.100079  0.104354  0  1.02884  0
H  H5  1  0.32358921  0.95708650  0.39572572  1  0  0.100067  0.104346  0  1.028865  0
H  H6  1  0.58832245  0.31808224  0.50527855  1  0  0.098571  0.09771  0  1.016079  0
H  H7  1  0.58832378  0.50527815  0.31808272  1  0  0.09857  0.097711  0  1.016081  0
H  H8  1  0.41167994  0.49472038  0.68191832  1  0  0.098573  0.097708  0  1.016085  0
H  H9  1  0.41167912  0.68191796  0.49472136  1  0  0.098578  0.097716  0  1.016091  0
H  H10  1  0.08658162  0.43095077  0.82209747  1  0  0.110458  0.085235  0  1.018564  0
H  H11  1  0.66034165  0.82208809  0.43095260  1  0  0.110698  0.086452  0  1.017769  0
H  H12  1  0.91341561  0.17790313  0.56904909  1  0  0.110456  0.085235  0  1.018581  0
H  H13  1  0.33965898  0.56904814  0.17791084  1  0  0.110714  0.086482  0  1.017793  0
H  H14  1  0.91341607  0.56904980  0.17790243  1  0  0.11046  0.085243  0  1.018577  0
H  H15  1  0.33965960  0.17791009  0.56904731  1  0  0.110689  0.086452  0  1.017753  0
H  H16  1  0.08658434  0.82209751  0.43095082  1  0  0.110457  0.085242  0  1.018575  0
H  H17  1  0.66033923  0.43095121  0.82209020  1  0  0.110703  0.086467  0  1.017816  0
H  H18  1  0.08041462  0.23073387  0.05548448  1  0  0.105814  0.119353  0  1.053329  0
H  H19  1  0.63337720  0.05548144  0.23072881  1  0  0.104784  0.117667  0  1.054738  0
H  H20  1  0.91958082  0.94451673  0.76926675  1  0  0.105788  0.119295  0  1.053329  0
H  H21  1  0.36662393  0.76927162  0.94451752  1  0  0.104782  0.117666  0  1.054694  0
H  H22  1  0.91958274  0.76926820  0.94451543  1  0  0.105812  0.119338  0  1.053303  0
H  H23  1  0.36662145  0.94451817  0.76927110  1  0  0.104785  0.117674  0  1.054785  0
H  H24  1  0.08041796  0.05548461  0.23073203  1  0  0.1058  0.119314  0  1.053315  0
H  H25  1  0.63337590  0.23072729  0.05548353  1  0  0.104766  0.117651  0  1.054669  0
C  C26  1  0.70557165  0.79445710  0.79445609  1  0  0.192298  0.557953  0  4.246514  0
C  C27  1  0.29443057  0.20554362  0.20554382  1  0  0.192211  0.557882  0  4.246772  0
C  C28  1  0.59965818  0.90033001  0.90033081  1  0  -0.015024  -0.129585  0  3.951525  0
C  C29  1  0.40034328  0.09966845  0.09967024  1  0  -0.01499  -0.129569  0  3.951531  0
C  C30  1  0.55096857  0.05722331  0.84086340  1  0  -0.008485  0.048065  0  4.002561  0
C  C31  1  0.55097136  0.84086237  0.05722376  1  0  -0.008494  0.047984  0  4.002706  0
C  C32  1  0.44903074  0.15913661  0.94277728  1  0  -0.008515  0.048021  0  4.002657  0
C  C33  1  0.44903236  0.94277636  0.15913651  1  0  -0.008502  0.048054  0  4.002612  0
C  C34  1  0.59937096  0.11938886  0.68194406  1  0  -0.091795  -0.131608  0  3.9669  0
C  C35  1  0.59937247  0.68194439  0.11938844  1  0  -0.091732  -0.131508  0  3.966868  0
C  C36  1  0.40063072  0.31805536  0.88061147  1  0  -0.091785  -0.131564  0  3.966885  0
C  C37  1  0.40062834  0.88061126  0.31805585  1  0  -0.091766  -0.131574  0  3.966879  0
C  C38  1  0.55023277  0.27279197  0.62675894  1  0  -0.090551  -0.073844  0  4.019871  0
C  C39  1  0.55023293  0.62675898  0.27279102  1  0  -0.090573  -0.073892  0  4.0199  0
C  C40  1  0.44976734  0.37324017  0.72720889  1  0  -0.090568  -0.073885  0  4.019919  0
C  C41  1  0.44976880  0.72720823  0.37324097  1  0  -0.09056  -0.073841  0  4.019898  0
C  C42  1  0.98858903  0.38264167  0.87794515  1  0  0.046304  0.098414  0  3.93601  0
C  C43  1  0.75079701  0.87792480  0.38262277  1  0  0.04637  0.096834  0  3.935943  0
C  C44  1  0.01140800  0.12205477  0.61735938  1  0  0.046249  0.098358  0  3.935937  0
C  C45  1  0.24920530  0.61737807  0.12207478  1  0  0.046354  0.096775  0  3.935938  0
C  C46  1  0.01140983  0.61735821  0.12205589  1  0  0.046294  0.098396  0  3.936  0
C  C47  1  0.24920327  0.12207435  0.61737714  1  0  0.046376  0.09684  0  3.935923  0
C  C48  1  0.98859098  0.87794685  0.38264052  1  0  0.046276  0.098404  0  3.935925  0
C  C49  1  0.75079412  0.38262379  0.87792400  1  0  0.046354  0.096782  0  3.935971  0
C  C50  1  0.98516858  0.26854809  0.00789212  1  0  -0.081448  -0.165438  0  3.906076  0
C  C51  1  0.73839847  0.00785998  0.26854762  1  0  -0.079266  -0.161682  0  3.904948  0
C  C52  1  0.01483451  0.99210903  0.73145129  1  0  -0.081409  -0.165402  0  3.906139  0
C  C53  1  0.26159859  0.73145423  0.99214048  1  0  -0.079279  -0.161665  0  3.905007  0
C  C54  1  0.01483170  0.73145106  0.99210779  1  0  -0.08146  -0.165453  0  3.906061  0
C  C55  1  0.26160116  0.99213865  0.73145230  1  0  -0.079271  -0.161726  0  3.905084  0
C  C56  1  0.98516524  0.00789134  0.26854749  1  0  -0.081433  -0.165442  0  3.906206  0
C  C57  1  0.73840083  0.26854764  0.00785830  1  0  -0.079266  -0.161661  0  3.905049  0
C  C58  1  0.85970273  0.20567405  0.07491437  1  0  0.014328  0.108175  0  3.942293  0
C  C59  1  0.85970423  0.07491702  0.20567515  1  0  0.014305  0.108246  0  3.942231  0
C  C60  1  0.14029507  0.92508310  0.79432476  1  0  0.014313  0.108251  0  3.942237  0
C  C61  1  0.14029496  0.79432652  0.92508554  1  0  0.014323  0.108201  0  3.94229  0
N  N62  1  0.87519266  0.43772433  0.81185278  1  0  -0.327181  -0.224156  0  3.570697  0
N  N63  1  0.87519174  0.81185185  0.43772382  1  0  -0.327165  -0.224181  0  3.57061  0
N  N64  1  0.12480854  0.18814731  0.56227609  1  0  -0.327144  -0.22413  0  3.570604  0
N  N65  1  0.12480774  0.56227656  0.18814600  1  0  -0.32716  -0.224133  0  3.570679  0
Cl  Cl66  1  0.81055371  0.49999854  0.49999630  1  0  -0.250366  -0.450024  0  1.380086  0
Cl  Cl67  1  0.18944527  0.50000308  0.50000361  1  0  -0.250386  -0.450056  0  1.380078  0
O  O68  1  0.63273111  0.75175655  0.75175747  1  0  -0.315237  -0.533101  0  2.18906  0
O  O69  1  0.86380569  0.75173772  0.75173682  1  0  -0.315207  -0.532908  0  2.190148  0
O  O70  1  0.36727002  0.24824340  0.24824357  1  0  -0.315186  -0.533045  0  2.189322  0
O  O71  1  0.13619653  0.24826300  0.24826309  1  0  -0.315168  -0.532906  0  2.190143  0
