# generated using pymatgen
data_CuH12C11NO4
_symmetry_space_group_name_H-M   'P 1'
_cell_length_a   9.14871104
_cell_length_b   11.85964052
_cell_length_c   13.42601832
_cell_angle_alpha   116.20362619
_cell_angle_beta   90.42157633
_cell_angle_gamma   90.01513363
_symmetry_Int_Tables_number   1
_chemical_formula_structural   CuH12C11NO4
_chemical_formula_sum   'Cu4 H48 C44 N4 O16'
_cell_volume   1306.97589690
_cell_formula_units_Z   4
loop_
 _symmetry_equiv_pos_site_id
 _symmetry_equiv_pos_as_xyz
  1  'x, y, z'
loop_
 _atom_site_type_symbol
 _atom_site_label
 _atom_site_symmetry_multiplicity
 _atom_site_fract_x
 _atom_site_fract_y
 _atom_site_fract_z
 _atom_site_occupancy
 _atom_site_pbe_bader_charge
 _atom_site_pbe_bader_spin_density
 _atom_site_pbe_cm5_charge
 _atom_site_pbe_ddec_charge
 _atom_site_pbe_ddec_spin_density
 _atom_site_pbe_ddec_sum_bond_order
 _atom_site_pbe_magmom
Cu  Cu0  1  0.57895346  0.01984985  0.58575522  1  1.065524  0.574595  0.676764  0.751238  0.753745  2.399235  0.576
Cu  Cu1  1  0.92109046  0.43403558  0.41419085  1  1.064913  -0.574591  0.676349  0.751668  -0.753909  2.397435  -0.576
Cu  Cu2  1  0.42104727  0.98014837  0.41424085  1  1.065753  0.574608  0.676753  0.751263  0.753747  2.399118  0.576
Cu  Cu3  1  0.07891028  0.56596257  0.58580892  1  1.064872  -0.574592  0.676361  0.751788  -0.753916  2.397422  -0.576
H  H4  1  0.59163460  0.59545061  0.42201890  1  0.103583  0.000611  0.103313  0.135705  0.000292  0.989253  0.0
H  H5  1  0.42101383  0.62111073  0.48608944  1  0.105884  8.1e-05  0.105426  0.133817  -6.2e-05  1.004461  0.0
H  H6  1  0.30739067  0.57992296  0.29261868  1  0.032106  -7.6e-05  0.09105  0.088704  7.5e-05  0.980404  0.0
H  H7  1  0.47927649  0.51707290  0.23740516  1  0.013316  -0.001293  0.086477  0.074055  -0.000716  0.991747  -0.001
H  H8  1  0.45356299  0.37443292  0.33957600  1  0.045291  -0.001001  0.101632  0.123796  -0.000464  0.988032  -0.001
H  H9  1  0.33829476  0.33885051  0.22176240  1  0.046192  -0.001831  0.093675  0.109613  -0.000979  0.991114  -0.001
H  H10  1  0.75170698  0.83462026  0.63900457  1  0.139163  1.1e-05  0.118293  0.099452  6.8e-05  1.000447  0.0
H  H11  1  0.93514081  0.82633860  0.77312085  1  0.120019  -3.5e-05  0.107341  0.128822  -4.1e-05  1.031611  0.0
H  H12  1  0.89476306  0.22988845  0.95586427  1  0.059074  -2.1e-05  0.105194  0.109799  -7e-06  1.001639  0.0
H  H13  1  0.71365877  0.22036323  0.81063591  1  0.091589  -6.5e-05  0.117677  0.088453  -3.3e-05  0.982958  0.0
H  H14  1  0.13020257  0.96739345  0.92054543  1  0.059205  -2.2e-05  0.094575  0.097838  -1.1e-05  1.005613  0.0
H  H15  1  0.07778675  0.12163115  0.01508324  1  0.061994  -1.1e-05  0.097196  0.099621  -1e-05  0.976195  0.0
H  H16  1  0.90841327  0.17330878  0.57807200  1  0.096489  -0.000617  0.103255  0.135409  -0.00029  0.989691  0.0
H  H17  1  0.07898505  0.13500884  0.51391239  1  0.098828  -8.9e-05  0.105424  0.13371  5.8e-05  1.004237  0.0
H  H18  1  0.19278444  0.28742758  0.70727402  1  0.027809  7.3e-05  0.091116  0.088657  -7.3e-05  0.979789  0.0
H  H19  1  0.02093697  0.27980638  0.76259834  1  0.021655  0.001296  0.086369  0.074017  0.000717  0.991718  0.001
H  H20  1  0.04648750  0.03507458  0.66057447  1  0.073264  0.000975  0.101589  0.123255  0.000463  0.988283  0.001
H  H21  1  0.16177962  0.11730680  0.77836130  1  0.037909  0.00185  0.093541  0.109355  0.000978  0.990797  0.001
H  H22  1  0.74858818  0.19508294  0.36063633  1  0.134665  -1.3e-05  0.118374  0.099769  -6.9e-05  0.999938  0.0
H  H23  1  0.56475979  0.05287940  0.22670205  1  0.122458  3.3e-05  0.107747  0.129259  4.1e-05  1.031566  0.0
H  H24  1  0.60521512  0.27386757  0.04406353  1  0.074778  2.1e-05  0.105349  0.109972  7e-06  1.001807  0.0
H  H25  1  0.78628345  0.40958274  0.18929979  1  0.090626  6.6e-05  0.117644  0.088618  3.3e-05  0.983039  0.0
H  H26  1  0.36965616  0.04670912  0.07929894  1  0.057366  2.2e-05  0.094925  0.098309  1.1e-05  1.005029  0.0
H  H27  1  0.42224763  0.10645454  0.98479243  1  0.033691  1.1e-05  0.097372  0.099652  1e-05  0.975942  0.0
H  H28  1  0.40837050  0.40454781  0.57797830  1  0.10363  0.000611  0.10333  0.135703  0.000292  0.989243  0.0
H  H29  1  0.57899347  0.37888674  0.51390963  1  0.105836  8.1e-05  0.105411  0.133761  -6.2e-05  1.004493  0.0
H  H30  1  0.69261225  0.42007561  0.70737962  1  0.032076  -7.6e-05  0.091037  0.088686  7.5e-05  0.980392  0.0
H  H31  1  0.52072646  0.48292172  0.76259201  1  0.013259  -0.001293  0.0865  0.074061  -0.000716  0.99175  -0.001
H  H32  1  0.54643447  0.62556479  0.66042522  1  0.045297  -0.001001  0.101633  0.123826  -0.000464  0.988001  -0.001
H  H33  1  0.66170818  0.66114692  0.77823664  1  0.04619  -0.001831  0.09368  0.10962  -0.000979  0.991097  -0.001
H  H34  1  0.24829265  0.16538018  0.36099373  1  0.139175  1.1e-05  0.118298  0.099473  6.8e-05  1.000429  0.0
H  H35  1  0.06485881  0.17366200  0.22687856  1  0.120002  -3.5e-05  0.107364  0.128877  -4.1e-05  1.031633  0.0
H  H36  1  0.10523546  0.77011272  0.04413476  1  0.059062  -2.1e-05  0.10521  0.109773  -7e-06  1.00167  0.0
H  H37  1  0.28633976  0.77963736  0.18936349  1  0.091622  -6.5e-05  0.11768  0.088435  -3.3e-05  0.982947  0.0
H  H38  1  0.86979486  0.03260862  0.07945545  1  0.059173  -2.2e-05  0.09458  0.097837  -1.1e-05  1.005584  0.0
H  H39  1  0.92221178  0.87836961  0.98491727  1  0.061993  -1.1e-05  0.09719  0.099615  -1e-05  0.976209  0.0
H  H40  1  0.09158090  0.82669211  0.42192959  1  0.096562  -0.000617  0.103262  0.135445  -0.00029  0.989713  0.0
H  H41  1  0.92100802  0.86499146  0.48608956  1  0.09875  -8.9e-05  0.105395  0.133678  5.8e-05  1.004282  0.0
H  H42  1  0.80720972  0.71257297  0.29272534  1  0.027767  7.3e-05  0.091145  0.088722  -7.3e-05  0.979805  0.0
H  H43  1  0.97905940  0.72019264  0.23740325  1  0.021706  0.001295  0.086363  0.07403  0.000717  0.991775  0.001
H  H44  1  0.95351213  0.96492454  0.33942345  1  0.073282  0.000976  0.101613  0.123254  0.000463  0.988258  0.001
H  H45  1  0.83822332  0.88268954  0.22163476  1  0.037856  0.00185  0.093489  0.109292  0.000978  0.990742  0.001
H  H46  1  0.25141799  0.80492012  0.63936647  1  0.13471  -1.3e-05  0.118336  0.099761  -6.9e-05  0.999875  0.0
H  H47  1  0.43524419  0.94712381  0.77330185  1  0.122434  3.3e-05  0.107726  0.129276  4.1e-05  1.031536  0.0
H  H48  1  0.39478341  0.72613427  0.95593995  1  0.074723  2.1e-05  0.10538  0.110035  7e-06  1.001797  0.0
H  H49  1  0.21371945  0.59041881  0.81070150  1  0.090601  6.6e-05  0.117649  0.088636  3.3e-05  0.983019  0.0
H  H50  1  0.63034565  0.95329384  0.92070752  1  0.057191  2.2e-05  0.094934  0.098286  1.1e-05  1.004961  0.0
H  H51  1  0.57775418  0.89354841  0.01521404  1  0.033581  1.1e-05  0.097386  0.099673  1e-05  0.975898  0.0
C  C52  1  0.48308069  0.76205507  0.44062862  1  1.552352  -0.001159  0.215128  0.635417  0.00098  4.104391  -0.004
C  C53  1  0.47921988  0.62497932  0.41618296  1  -0.088442  0.016517  -0.168957  -0.303322  0.011972  3.887884  0.013
C  C54  1  0.40561732  0.53570602  0.30734544  1  0.005792  0.002772  -0.16016  -0.087994  0.002003  3.922401  0.002
C  C55  1  0.36317526  0.40927599  0.30652651  1  -0.001766  -0.016485  -0.163478  -0.293829  -0.012162  3.89341  -0.013
C  C56  1  0.22899826  0.42716589  0.37719402  1  1.524484  0.000877  0.214977  0.633486  -0.000946  4.102005  0.004
C  C57  1  0.78674622  0.92002362  0.71069621  1  0.45051  -0.000427  0.046693  0.102219  -0.000279  3.939876  0.0
C  C58  1  0.88878710  0.91659051  0.78655322  1  -0.051525  0.000241  -0.086392  -0.189451  0.000137  3.927503  0.0
C  C59  1  0.92985409  0.02856586  0.87771100  1  -0.030394  -0.000581  0.008755  0.153856  -0.000375  3.974625  0.0
C  C60  1  0.86561888  0.13986851  0.88697480  1  -0.027653  0.000275  -0.089891  -0.201606  0.000194  3.987454  0.0
C  C61  1  0.76469032  0.13528984  0.80693976  1  0.482904  -0.000587  0.044237  0.093839  -0.000399  3.973775  0.0
C  C62  1  0.03594882  0.02646816  0.96271247  1  -0.049897  -1.9e-05  -0.152978  -0.191434  -1.8e-05  3.928086  0.0
C  C63  1  0.01678372  0.32135267  0.55930368  1  1.524244  0.001048  0.215359  0.635862  -0.000973  4.103303  0.004
C  C64  1  0.02079130  0.20876069  0.58381546  1  -0.058757  -0.016374  -0.168654  -0.302694  -0.011982  3.887052  -0.013
C  C65  1  0.09455911  0.22847128  0.69264824  1  0.002429  -0.002755  -0.159853  -0.087826  -0.002001  3.922357  -0.002
C  C66  1  0.13694943  0.10293473  0.69358164  1  -0.044107  0.016703  -0.163724  -0.29334  0.01216  3.893379  0.013
C  C67  1  0.27103669  0.04997259  0.62286478  1  1.540891  -0.001079  0.21483  0.632915  0.000949  4.102378  -0.004
C  C68  1  0.71346558  0.20884507  0.28898612  1  0.492929  0.000422  0.046796  0.101782  0.000276  3.940456  0.0
C  C69  1  0.61117620  0.12969615  0.21326417  1  -0.138575  -0.000237  -0.086891  -0.189711  -0.000134  3.928456  0.0
C  C70  1  0.57007559  0.15066637  0.12220367  1  0.016342  0.000576  0.008221  0.153628  0.000372  3.977454  0.0
C  C71  1  0.63441197  0.25268772  0.11292350  1  -0.038807  -0.000272  -0.089849  -0.201188  -0.000192  3.987356  0.0
C  C72  1  0.73533605  0.32812946  0.19295237  1  0.487298  0.000584  0.044822  0.093684  0.000397  3.975847  0.0
C  C73  1  0.46398209  0.06370321  0.03721360  1  -0.01332  1.8e-05  -0.153477  -0.192225  1.8e-05  3.928879  0.0
C  C74  1  0.51692114  0.23794274  0.55936893  1  1.552563  -0.00116  0.21513  0.635418  0.00098  4.104358  -0.004
C  C75  1  0.52078632  0.37501945  0.58381648  1  -0.088552  0.016518  -0.168973  -0.303248  0.011972  3.88783  0.013
C  C76  1  0.59438449  0.46429420  0.69265546  1  0.005829  0.002772  -0.160186  -0.088006  0.002003  3.922393  0.002
C  C77  1  0.63682546  0.59072422  0.69347438  1  -0.001747  -0.016484  -0.163459  -0.293846  -0.012161  3.893416  -0.013
C  C78  1  0.77099699  0.57283285  0.62280164  1  1.524211  0.000877  0.214967  0.633472  -0.000946  4.102149  0.004
C  C79  1  0.21325231  0.07997697  0.28930319  1  0.450728  -0.000427  0.046669  0.102153  -0.000279  3.939942  0.0
C  C80  1  0.11121143  0.08340934  0.21344543  1  -0.051779  0.000241  -0.086389  -0.189462  0.000136  3.92766  0.0
C  C81  1  0.07014553  0.97143491  0.12228951  1  -0.030463  -0.000581  0.008757  0.153818  -0.000374  3.9747  0.0
C  C82  1  0.13437747  0.86013115  0.11302273  1  -0.027686  0.000275  -0.089898  -0.20155  0.000194  3.98745  0.0
C  C83  1  0.23530711  0.86471132  0.19305926  1  0.482943  -0.000587  0.044233  0.093857  -0.000399  3.973743  0.0
C  C84  1  0.96404862  0.97353242  0.03728692  1  -0.030833  -1.8e-05  -0.152983  -0.191425  -1.8e-05  3.928029  0.0
C  C85  1  0.98321593  0.67864581  0.44069829  1  1.524408  0.001047  0.215224  0.63564  -0.000974  4.103607  0.004
C  C86  1  0.97920287  0.79123905  0.41618686  1  -0.058678  -0.016377  -0.168614  -0.302699  -0.011984  3.887211  -0.013
C  C87  1  0.90543615  0.77152813  0.30735186  1  0.002314  -0.002755  -0.159904  -0.087953  -0.002001  3.922556  -0.002
C  C88  1  0.86305130  0.89706365  0.30641554  1  -0.017524  0.016474  -0.163669  -0.293183  0.01216  3.893267  0.013
C  C89  1  0.72895968  0.95002318  0.37712791  1  1.514262  -0.00085  0.214701  0.63276  0.00095  4.102834  -0.004
C  C90  1  0.28653732  0.79115681  0.71101738  1  0.493002  0.000422  0.046851  0.101872  0.000276  3.940373  0.0
C  C91  1  0.38882780  0.87030666  0.78674120  1  -0.138596  -0.000237  -0.086908  -0.189823  -0.000134  3.928567  0.0
C  C92  1  0.42992620  0.84933757  0.87780095  1  0.029483  0.000576  0.0082  0.153639  0.000372  3.977646  0.0
C  C93  1  0.36558874  0.74731472  0.88707963  1  -0.052185  -0.000272  -0.089906  -0.201341  -0.000192  3.987403  0.0
C  C94  1  0.26466795  0.67187210  0.80704892  1  0.487632  0.000584  0.044816  0.093717  0.000397  3.975735  0.0
C  C95  1  0.53601754  0.93629823  0.96279136  1  -0.028724  1.9e-05  -0.153445  -0.192082  1.8e-05  3.928742  0.0
N  N96  1  0.72470490  0.02729724  0.72021854  1  -1.231103  -0.00119  -0.3365  -0.254581  -0.000224  3.503374  0.0
N  N97  1  0.77543134  0.30673110  0.27958105  1  -1.229068  0.001201  -0.33678  -0.255154  0.000232  3.505458  0.0
N  N98  1  0.27529253  0.97270318  0.27977974  1  -1.231056  -0.001191  -0.336489  -0.254558  -0.000224  3.503443  0.0
N  N99  1  0.22457265  0.69327046  0.72042024  1  -1.229274  0.0012  -0.336762  -0.25521  0.000232  3.505409  0.0
O  O100  1  0.55445417  0.83400531  0.52804146  1  -1.135824  0.091508  -0.322117  -0.548374  0.060183  2.367371  0.083
O  O101  1  0.41479546  0.79735316  0.37617087  1  -1.108786  0.10362  -0.314516  -0.517455  0.068024  2.330049  0.094
O  O102  1  0.10783413  0.38381191  0.32723697  1  -1.121288  -0.092671  -0.320415  -0.541115  -0.060886  2.348337  -0.085
O  O103  1  0.24601196  0.48998809  0.48192040  1  -1.121523  -0.090449  -0.312635  -0.530406  -0.059463  2.38249  -0.083
O  O104  1  0.94548305  0.30579907  0.47183857  1  -1.117648  -0.091521  -0.322567  -0.548732  -0.060142  2.366821  -0.083
O  O105  1  0.08496095  0.42118938  0.62380658  1  -1.115973  -0.103611  -0.314553  -0.517927  -0.067921  2.330156  -0.094
O  O106  1  0.39224985  0.05658641  0.67275794  1  -1.124583  0.092583  -0.320707  -0.541187  0.060838  2.348906  0.085
O  O107  1  0.25393913  0.00799136  0.51814013  1  -1.110279  0.090491  -0.312399  -0.529818  0.059535  2.382333  0.083
O  O108  1  0.44555202  0.16599386  0.47195650  1  -1.135829  0.091504  -0.32208  -0.548365  0.060181  2.367478  0.083
O  O109  1  0.58520420  0.20264382  0.62382961  1  -1.108787  0.103627  -0.314536  -0.517471  0.068028  2.32998  0.094
O  O110  1  0.89216661  0.61618424  0.67275797  1  -1.121222  -0.092674  -0.320443  -0.541181  -0.060889  2.348413  -0.085
O  O111  1  0.75398216  0.51001550  0.51807825  1  -1.121374  -0.090451  -0.312636  -0.530352  -0.059464  2.382521  -0.083
O  O112  1  0.05451656  0.69420518  0.52816826  1  -1.117858  -0.091534  -0.322481  -0.548651  -0.060149  2.366713  -0.083
O  O113  1  0.91504523  0.57881254  0.37619695  1  -1.115919  -0.103602  -0.314507  -0.517777  -0.067916  2.330327  -0.094
O  O114  1  0.60774985  0.94340520  0.32723622  1  -1.124522  0.092578  -0.320627  -0.541148  0.060833  2.349165  0.084
O  O115  1  0.74605825  0.99201497  0.48185560  1  -1.110118  0.090491  -0.312349  -0.529701  0.059535  2.382383  0.083
