# generated using pymatgen
data_Zn2H14C20N22O
_symmetry_space_group_name_H-M   'P 1'
_cell_length_a   8.38960907
_cell_length_b   8.84236073
_cell_length_c   20.07481477
_cell_angle_alpha   83.71108182
_cell_angle_beta   77.92702575
_cell_angle_gamma   61.66960966
_symmetry_Int_Tables_number   1
_chemical_formula_structural   Zn2H14C20N22O
_chemical_formula_sum   'Zn4 H28 C40 N44 O2'
_cell_volume   1281.77271770
_cell_formula_units_Z   2
loop_
 _symmetry_equiv_pos_site_id
 _symmetry_equiv_pos_as_xyz
  1  'x, y, z'
loop_
 _atom_site_type_symbol
 _atom_site_label
 _atom_site_symmetry_multiplicity
 _atom_site_fract_x
 _atom_site_fract_y
 _atom_site_fract_z
 _atom_site_occupancy
 _atom_site_hle17_bader_spin_density
 _atom_site_hle17_ddec_charge
 _atom_site_hle17_ddec_spin_density
 _atom_site_hle17_ddec_sum_bond_order
 _atom_site_hle17_magmom
 _atom_site_hse06_10hf_bader_charge
 _atom_site_hse06_10hf_bader_spin_density
 _atom_site_hse06_10hf_ddec_charge
 _atom_site_hse06_10hf_ddec_spin_density
 _atom_site_hse06_10hf_ddec_sum_bond_order
 _atom_site_hse06_10hf_magmom
 _atom_site_hse06_bader_spin_density
 _atom_site_hse06_ddec_charge
 _atom_site_hse06_ddec_spin_density
 _atom_site_hse06_ddec_sum_bond_order
 _atom_site_hse06_magmom
 _atom_site_pbe_bader_spin_density
 _atom_site_pbe_cm5_charge
 _atom_site_pbe_ddec_charge
 _atom_site_pbe_ddec_spin_density
 _atom_site_pbe_ddec_sum_bond_order
 _atom_site_pbe_magmom
Zn  Zn0  1  0.08999374  0.03065175  0.77465412  1  0  0.875063  0  2.001672  0  1.314152  0  0.674338  0  2.456599  0  0  0.716694  0  2.414797  0  0  0.708426  0.645022  0  2.485095  0
Zn  Zn1  1  0.89536771  0.46923627  0.72540494  1  0  0.874243  0  2.003722  0  1.312661  0  0.673109  0  2.458711  0  0  0.715443  0  2.416932  0  0  0.708256  0.643815  0  2.487199  0
Zn  Zn2  1  0.91000608  0.96935448  0.22534737  1  0  0.874955  0  2.002085  0  1.314055  0  0.674171  0  2.45701  0  0  0.716528  0  2.415206  0  0  0.708447  0.644868  0  2.485501  0
Zn  Zn3  1  0.10462612  0.53075968  0.27459549  1  0  0.874408  0  2.003613  0  1.312845  0  0.673289  0  2.45859  0  0  0.715619  0  2.41681  0  0  0.708348  0.643994  0  2.487077  0
H  H4  1  0.96230980  0.94596813  0.95431368  1  0  0.088796  0  0.939376  0  0.170277  0  0.092769  0  1.015947  0  0  0.095466  0  1.011703  0  0  0.136829  0.090737  0  1.019025  0
H  H5  1  0.86268696  0.55382992  0.54571288  1  0  0.088582  0  0.939759  0  0.178507  0  0.092489  0  1.016097  0  0  0.095086  0  1.011962  0  0  0.136854  0.090518  0  1.019084  0
H  H6  1  0.03769281  0.05402783  0.04568652  1  0  0.088711  0  0.939373  0  0.170194  0  0.09268  0  1.015963  0  0  0.09538  0  1.011716  0  0  0.136795  0.090647  0  1.019043  0
H  H7  1  0.13731822  0.44616090  0.45428733  1  0  0.088626  0  0.939955  0  0.178101  0  0.092534  0  1.016279  0  0  0.09513  0  1.012142  0  0  0.136893  0.090579  0  1.019252  0
H  H8  1  0.96965751  0.65898849  0.98373344  1  0  0.290955  0  0.952843  0  0.553995  0  0.257297  0  1.036854  0  0  0.267812  0  1.027894  0  0  0.3035  0.249933  0  1.043098  0
H  H9  1  0.61243027  0.84094290  0.51633087  1  0  0.291377  0  0.951318  0  0.554892  0  0.258219  0  1.034527  0  0  0.268685  0  1.025582  0  0  0.303666  0.250885  0  1.040773  0
H  H10  1  0.03035044  0.34100487  0.01626880  1  0  0.290955  0  0.952929  0  0.554071  0  0.257333  0  1.036884  0  0  0.267841  0  1.027933  0  0  0.303515  0.249974  0  1.04312  0
H  H11  1  0.38757198  0.15905438  0.48366661  1  0  0.291411  0  0.951598  0  0.554863  0  0.258309  0  1.03471  0  0  0.268767  0  1.025768  0  0  0.303711  0.250973  0  1.040963  0
H  H12  1  0.78454816  0.22907823  0.70909186  1  0  0.382942  0  0.921896  0  0.6343  0  0.337675  0  1.023491  0  0  0.349696  0  1.009528  0  0  0.280665  0.329257  0  1.031938  0
H  H13  1  0.72268240  0.27081921  0.79093752  1  0  0.382098  0  0.923324  0  0.631021  0  0.337269  0  1.024162  0  0  0.349288  0  1.010109  0  0  0.280578  0.328853  0  1.032603  0
H  H14  1  0.21544951  0.77092034  0.29090469  1  0  0.382938  0  0.921876  0  0.634333  0  0.337646  0  1.023504  0  0  0.349664  0  1.009558  0  0  0.280643  0.32923  0  1.031946  0
H  H15  1  0.27731756  0.72918063  0.20906095  1  0  0.382088  0  0.923321  0  0.631008  0  0.337281  0  1.024121  0  0  0.349297  0  1.010083  0  0  0.28057  0.328866  0  1.032562  0
H  H16  1  0.44019945  0.40074589  0.70135426  1  0  0.074917  0  0.912925  0  0.098918  0  0.087338  0  0.96885  0  0  0.089875  0  0.967132  0  0  0.113301  0.085438  0  0.970226  0
H  H17  1  0.54229065  0.09928182  0.79864586  1  0  0.075013  0  0.912436  0  0.06278  0  0.087195  0  0.968651  0  0  0.089752  0  0.966907  0  0  0.113145  0.085236  0  0.97009  0
H  H18  1  0.55979132  0.59925781  0.29864295  1  0  0.074977  0  0.913014  0  0.098768  0  0.087381  0  0.968934  0  0  0.089921  0  0.967213  0  0  0.113302  0.085481  0  0.970308  0
H  H19  1  0.45771021  0.90071542  0.20135422  1  0  0.074976  0  0.912385  0  0.062803  0  0.087144  0  0.968632  0  0  0.089711  0  0.966875  0  0  0.113135  0.085187  0  0.97007  0
H  H20  1  0.29415241  0.57214390  0.60546403  1  0  0.098147  0  1.02748  0  0.126521  0  0.103097  0  1.09848  0  0  0.10571  0  1.098232  0  0  0.105543  0.101172  0  1.098898  0
H  H21  1  0.47193829  0.92774962  0.89452630  1  0  0.098143  0  1.02772  0  0.124549  0  0.102717  0  1.099103  0  0  0.105327  0  1.098861  0  0  0.105291  0.100811  0  1.09948  0
H  H22  1  0.70585679  0.42785601  0.39452770  1  0  0.098084  0  1.027301  0  0.126485  0  0.102939  0  1.098417  0  0  0.10555  0  1.098173  0  0  0.105475  0.101017  0  1.098828  0
H  H23  1  0.52806265  0.07224890  0.10547549  1  0  0.098199  0  1.027758  0  0.124537  0  0.102769  0  1.099114  0  0  0.105379  0  1.098872  0  0  0.105319  0.10086  0  1.099495  0
H  H24  1  0.80787122  0.27305041  0.47091948  1  0  0.108338  0  0.990365  0  0.113639  0  0.112396  0  1.061165  0  0  0.116073  0  1.058999  0  0  0.106908  0.10971  0  1.062921  0
H  H25  1  0.55164494  0.22697070  0.02906690  1  0  0.108609  0  0.990308  0  0.117328  0  0.11262  0  1.06109  0  0  0.116302  0  1.058917  0  0  0.106794  0.109933  0  1.062845  0
H  H26  1  0.19209766  0.72697514  0.52907768  1  0  0.10811  0  0.990231  0  0.113776  0  0.112191  0  1.061037  0  0  0.115866  0  1.058877  0  0  0.10679  0.109505  0  1.062793  0
H  H27  1  0.44835508  0.77303168  0.97093388  1  0  0.108594  0  0.990274  0  0.117091  0  0.112585  0  1.061092  0  0  0.116268  0  1.058916  0  0  0.10677  0.109897  0  1.062848  0
H  H28  1  0.92728940  0.10666166  0.57277077  1  0  0.077568  0  0.951311  0  0.124483  0  0.080004  0  1.022853  0  0  0.083176  0  1.020135  0  0  0.110497  0.077627  0  1.024893  0
H  H29  1  0.60666450  0.39326718  0.92720848  1  0  0.076866  0  0.952108  0  0.130209  0  0.079099  0  1.023793  0  0  0.082317  0  1.021045  0  0  0.110098  0.076736  0  1.025806  0
H  H30  1  0.07272158  0.89333568  0.42722047  1  0  0.077549  0  0.951425  0  0.124621  0  0.08001  0  1.022932  0  0  0.08317  0  1.020224  0  0  0.110513  0.077634  0  1.024971  0
H  H31  1  0.39333621  0.60673136  0.07279110  1  0  0.076916  0  0.952055  0  0.130216  0  0.079126  0  1.023758  0  0  0.082343  0  1.021011  0  0  0.11012  0.076763  0  1.02577  0
C  C32  1  0.96911172  0.86181564  0.91732736  1  0  0.266334  0  3.66483  0  1.079578  0  0.193856  0  3.957459  0  0  0.209374  0  3.96819  0  0  0.161974  0.183785  0  3.949858  0
C  C33  1  0.74837541  0.63803484  0.58272351  1  0  0.266917  0  3.664068  0  1.074791  0  0.194607  0  3.956936  0  0  0.210163  0  3.967664  0  0  0.162032  0.184544  0  3.94934  0
C  C34  1  0.03088897  0.13818157  0.08267653  1  0  0.266567  0  3.665106  0  1.079603  0  0.194077  0  3.957747  0  0  0.209595  0  3.968477  0  0  0.162058  0.184006  0  3.950146  0
C  C35  1  0.25162122  0.36195978  0.41728206  1  0  0.266859  0  3.663944  0  1.075556  0  0.194602  0  3.956785  0  0  0.210156  0  3.967508  0  0  0.161966  0.18452  0  3.949196  0
C  C36  1  0.98416056  0.63384343  0.87443442  1  0  0.072549  0  3.721359  0  0.443682  0  0.054595  0  3.982849  0  0  0.057301  0  4.000936  0  0  0.099235  0.052717  0  3.970771  0
C  C37  1  0.49262922  0.86611979  0.62563930  1  0  0.072933  0  3.72077  0  0.471773  0  0.05472  0  3.983348  0  0  0.057407  0  4.001346  0  0  0.099321  0.052884  0  3.971269  0
C  C38  1  0.01584794  0.36615249  0.12556963  1  0  0.072699  0  3.721292  0  0.44446  0  0.054782  0  3.982762  0  0  0.057484  0  4.000851  0  0  0.099318  0.052908  0  3.970663  0
C  C39  1  0.50737280  0.13388261  0.37435949  1  0  0.073064  0  3.720794  0  0.471637  0  0.054807  0  3.983323  0  0  0.057485  0  4.001323  0  0  0.099292  0.052971  0  3.971246  0
C  C40  1  0.98525657  0.75248216  0.82294882  1  0  0.055513  0  3.781087  0  0.487854  0  0.042222  0  4.044961  0  0  0.04419  0  4.064643  0  0  0.088581  0.040882  0  4.031735  0
C  C41  1  0.56085341  0.74746805  0.67711986  1  0  0.055697  0  3.780397  0  0.454474  0  0.041876  0  4.044921  0  0  0.043763  0  4.064679  0  0  0.088335  0.040569  0  4.031634  0
C  C42  1  0.01474171  0.24751380  0.17705204  1  0  0.055495  0  3.781193  0  0.4877  0  0.042135  0  4.04521  0  0  0.044094  0  4.06488  0  0  0.088504  0.040792  0  4.031982  0
C  C43  1  0.43914664  0.25253043  0.32288403  1  0  0.055823  0  3.78048  0  0.454614  0  0.041974  0  4.045146  0  0  0.043865  0  4.064904  0  0  0.088405  0.040669  0  4.031862  0
C  C44  1  0.00954939  0.46126086  0.87295561  1  0  0.276328  0  3.816798  0  1.036027  0  0.24651  0  4.098362  0  0  0.258335  0  4.111529  0  0  0.221867  0.238543  0  4.089559  0
C  C45  1  0.34391269  0.03869664  0.62711066  1  0  0.276251  0  3.817133  0  1.02003  0  0.246234  0  4.099305  0  0  0.258147  0  4.112325  0  0  0.221505  0.238225  0  4.090555  0
C  C46  1  0.99045054  0.53874274  0.12705069  1  0  0.275926  0  3.816807  0  1.035897  0  0.246114  0  4.098377  0  0  0.257938  0  4.111547  0  0  0.221825  0.238165  0  4.089541  0
C  C47  1  0.65609342  0.96130197  0.37288235  1  0  0.276005  0  3.817499  0  1.020088  0  0.246313  0  4.099249  0  0  0.258228  0  4.11227  0  0  0.221664  0.238302  0  4.090499  0
C  C48  1  0.00426503  0.75548735  0.74991234  1  0  0.276515  0  3.820216  0  0.971961  0  0.24903  0  4.082925  0  0  0.261203  0  4.098095  0  0  0.217723  0.24092  0  4.072609  0
C  C49  1  0.50974784  0.74441405  0.75015453  1  0  0.274041  0  3.822754  0  1.024671  0  0.246806  0  4.085341  0  0  0.258992  0  4.100505  0  0  0.216827  0.23871  0  4.075002  0
C  C50  1  0.99573182  0.24449832  0.25008901  1  0  0.276649  0  3.820129  0  0.971823  0  0.249046  0  4.082998  0  0  0.261253  0  4.098117  0  0  0.217726  0.240938  0  4.072682  0
C  C51  1  0.49025259  0.25559217  0.24984756  1  0  0.274106  0  3.822983  0  1.024992  0  0.246749  0  4.08572  0  0  0.258936  0  4.10088  0  0  0.216879  0.238648  0  4.075385  0
C  C52  1  0.51697351  0.37489512  0.64914675  1  0  0.131309  0  3.72041  0  0.488507  0  0.099467  0  3.982528  0  0  0.105654  0  3.999287  0  0  0.040159  0.095535  0  3.970947  0
C  C53  1  0.54098289  0.12511382  0.85085138  1  0  0.131277  0  3.719048  0  0.526616  0  0.099819  0  3.981095  0  0  0.105982  0  3.997849  0  0  0.040483  0.095943  0  3.969532  0
C  C54  1  0.48303931  0.62509188  0.35085021  1  0  0.131534  0  3.720263  0  0.488512  0  0.099704  0  3.982297  0  0  0.105894  0  3.999053  0  0  0.040359  0.095776  0  3.970722  0
C  C55  1  0.45902136  0.87488087  0.14914782  1  0  0.131316  0  3.71916  0  0.526353  0  0.099844  0  3.981204  0  0  0.106003  0  3.997953  0  0  0.040481  0.095967  0  3.96964  0
C  C56  1  0.43627709  0.47338200  0.59527333  1  0  -0.148025  0  3.698988  0  -0.058073  0  -0.170706  0  3.954228  0  0  -0.17754  0  3.976016  0  0  -0.088116  -0.166253  0  3.939573  0
C  C57  1  0.50498912  0.02656874  0.90472454  1  0  -0.147848  0  3.700407  0  0.001671  0  -0.170353  0  3.955359  0  0  -0.177196  0  3.97717  0  0  -0.087751  -0.165895  0  3.940665  0
C  C58  1  0.56371120  0.52662288  0.40473298  1  0  -0.148037  0  3.699112  0  -0.058045  0  -0.170624  0  3.954338  0  0  -0.177457  0  3.97613  0  0  -0.08803  -0.166175  0  3.939681  0
C  C59  1  0.49500768  0.97343362  0.09527702  1  0  -0.147938  0  3.700485  0  0.001702  0  -0.170346  0  3.955393  0  0  -0.177189  0  3.977205  0  0  -0.087784  -0.165888  0  3.9407  0
C  C60  1  0.53923705  0.44466281  0.52894432  1  0  0.094009  0  3.729162  0  0.019181  0  0.10592  0  3.957965  0  0  0.109105  0  3.980159  0  0  0.009502  0.103964  0  3.942744  0
C  C61  1  0.51280596  0.05532230  0.97105248  1  0  0.09396  0  3.733576  0  -0.087333  0  0.106194  0  3.961678  0  0  0.109402  0  3.983848  0  0  0.00996  0.104223  0  3.946475  0
C  C62  1  0.46076957  0.55532797  0.47105931  1  0  0.094135  0  3.729352  0  -0.010623  0  0.106126  0  3.958018  0  0  0.109315  0  3.98021  0  0  0.009611  0.104167  0  3.9428  0
C  C63  1  0.48717393  0.94469293  0.02894856  1  0  0.094068  0  3.733556  0  -0.057197  0  0.106126  0  3.961763  0  0  0.109333  0  3.983933  0  0  0.010014  0.104156  0  3.946559  0
C  C64  1  0.71905002  0.30717942  0.52067501  1  0  -0.161934  0  3.687066  0  -0.039406  0  -0.174062  0  3.925173  0  0  -0.181563  0  3.946835  0  0  -0.083297  -0.169126  0  3.910553  0
C  C65  1  0.54670955  0.19285334  0.97931791  1  0  -0.162854  0  3.687759  0  -0.058796  0  -0.17518  0  3.92585  0  0  -0.182667  0  3.947457  0  0  -0.083673  -0.170258  0  3.911279  0
C  C66  1  0.28095461  0.69282299  0.47932239  1  0  -0.161732  0  3.686786  0  -0.039208  0  -0.173895  0  3.924868  0  0  -0.181388  0  3.946512  0  0  -0.083193  -0.168957  0  3.910245  0
C  C67  1  0.45328855  0.80715289  0.02068286  1  0  -0.162845  0  3.687625  0  -0.058546  0  -0.175104  0  3.925709  0  0  -0.182591  0  3.947317  0  0  -0.083652  -0.170182  0  3.911138  0
C  C68  1  0.78807539  0.21341771  0.57753374  1  0  0.128566  0  3.717134  0  0.49368  0  0.100063  0  3.968603  0  0  0.105285  0  3.987406  0  0  0.041137  0.096807  0  3.955757  0
C  C69  1  0.57890108  0.28657335  0.92244889  1  0  0.129379  0  3.715471  0  0.503073  0  0.101345  0  3.966798  0  0  0.106513  0  3.985581  0  0  0.041517  0.098091  0  3.953951  0
C  C70  1  0.21192455  0.78658602  0.42246162  1  0  0.128514  0  3.717168  0  0.493368  0  0.099977  0  3.96863  0  0  0.105208  0  3.98744  0  0  0.041013  0.096724  0  3.955787  0
C  C71  1  0.42109852  0.71342518  0.07755058  1  0  0.129225  0  3.715363  0  0.502963  0  0.101225  0  3.966673  0  0  0.106393  0  3.985453  0  0  0.04144  0.097972  0  3.953826  0
N  N72  1  0.02098585  0.37952438  0.81778399  1  0  -0.30387  0  3.078016  0  -0.736916  0  -0.255405  0  3.359401  0  0  -0.269225  0  3.372295  0  0  -0.222487  -0.246134  0  3.350766  0
N  N73  1  0.21839705  0.12045693  0.68227969  1  0  -0.304446  0  3.07948  0  -0.728234  0  -0.256199  0  3.360612  0  0  -0.270061  0  3.373491  0  0  -0.222888  -0.246909  0  3.351984  0
N  N74  1  0.97892776  0.62051255  0.18222961  1  0  -0.303609  0  3.077656  0  -0.736874  0  -0.255273  0  3.359004  0  0  -0.2691  0  3.371918  0  0  -0.222528  -0.246007  0  3.350362  0
N  N75  1  0.78158762  0.87953913  0.31771164  1  0  -0.304056  0  3.079574  0  -0.728261  0  -0.256032  0  3.3607  0  0  -0.269885  0  3.37357  0  0  -0.222866  -0.246752  0  3.352092  0
N  N76  1  0.05481169  0.21988669  0.84060378  1  0  -0.089955  0  3.208964  0  -0.234887  0  -0.035226  0  3.506523  0  0  -0.04273  0  3.520362  0  0  -0.105057  -0.030079  0  3.497167  0
N  N77  1  0.11534414  0.28006420  0.65944143  1  0  -0.08911  0  3.208955  0  -0.217652  0  -0.033183  0  3.505129  0  0  -0.040691  0  3.518979  0  0  -0.104609  -0.028037  0  3.495771  0
N  N78  1  0.94513451  0.78014391  0.15940123  1  0  -0.090223  0  3.209308  0  -0.234756  0  -0.035212  0  3.506516  0  0  -0.042714  0  3.520349  0  0  -0.105159  -0.030068  0  3.497163  0
N  N79  1  0.88467208  0.71993699  0.34054994  1  0  -0.089522  0  3.209377  0  -0.218018  0  -0.033471  0  3.505494  0  0  -0.040982  0  3.519339  0  0  -0.104749  -0.028324  0  3.496139  0
N  N80  1  0.06217265  0.20424217  0.90589536  1  0  -0.062671  0  2.933197  0  -0.091248  0  -0.062644  0  3.223985  0  0  -0.060331  0  3.23646  0  0  -0.086488  -0.063916  0  3.215484  0
N  N81  1  0.17232812  0.29564748  0.59413513  1  0  -0.062694  0  2.933661  0  -0.108811  0  -0.063143  0  3.224408  0  0  -0.060841  0  3.236886  0  0  -0.086648  -0.064412  0  3.215913  0
N  N82  1  0.93788967  0.79574228  0.09409976  1  0  -0.06277  0  2.933662  0  -0.091129  0  -0.062821  0  3.224343  0  0  -0.060507  0  3.23682  0  0  -0.086448  -0.064094  0  3.215843  0
N  N83  1  0.82770201  0.70436269  0.40585856  1  0  -0.062478  0  2.934095  0  -0.109131  0  -0.063016  0  3.22491  0  0  -0.06071  0  3.237389  0  0  -0.086505  -0.06429  0  3.216419  0
N  N84  1  0.03451238  0.35417511  0.92763294  1  0  -0.302328  0  3.004449  0  -0.710564  0  -0.267381  0  3.282125  0  0  -0.278994  0  3.293323  0  0  -0.207721  -0.259543  0  3.274552  0
N  N85  1  0.31642054  0.14572000  0.57240407  1  0  -0.302859  0  3.004443  0  -0.710857  0  -0.267963  0  3.282327  0  0  -0.279584  0  3.293473  0  0  -0.207486  -0.260126  0  3.274792  0
N  N86  1  0.96553409  0.64581442  0.07236687  1  0  -0.302055  0  3.004658  0  -0.710764  0  -0.267089  0  3.282342  0  0  -0.278704  0  3.29354  0  0  -0.207658  -0.259255  0  3.274764  0
N  N87  1  0.68360452  0.85427603  0.42758958  1  0  -0.302955  0  3.004814  0  -0.710166  0  -0.268119  0  3.282645  0  0  -0.279743  0  3.293791  0  0  -0.207714  -0.260281  0  3.275108  0
N  N88  1  0.97234717  0.70814871  0.93361902  1  0  -0.303178  0  3.408047  0  -1.305134  0  -0.236151  0  3.648711  0  0  -0.253529  0  3.661992  0  0  -0.361307  -0.224442  0  3.639533  0
N  N89  1  0.61426257  0.79174635  0.56643850  1  0  -0.303595  0  3.40684  0  -1.315643  0  -0.237031  0  3.647949  0  0  -0.254273  0  3.661034  0  0  -0.361215  -0.225432  0  3.6389  0
N  N90  1  0.02768156  0.29183957  0.06637846  1  0  -0.30325  0  3.408067  0  -1.305789  0  -0.236233  0  3.648698  0  0  -0.253605  0  3.661978  0  0  -0.361302  -0.224529  0  3.639519  0
N  N91  1  0.38574615  0.20824444  0.43356425  1  0  -0.3038  0  3.40708  0  -1.315695  0  -0.237297  0  3.648184  0  0  -0.254533  0  3.661273  0  0  -0.36131  -0.225697  0  3.639143  0
N  N92  1  0.97600574  0.89343882  0.85089745  1  0  -0.402071  0  3.205901  0  -1.256986  0  -0.340972  0  3.4981  0  0  -0.359652  0  3.512883  0  0  -0.341226  -0.328309  0  3.487799  0
N  N93  1  0.72048116  0.60643937  0.64915235  1  0  -0.402195  0  3.205191  0  -1.255662  0  -0.340449  0  3.497052  0  0  -0.359038  0  3.511652  0  0  -0.341189  -0.32786  0  3.486894  0
N  N94  1  0.02397733  0.10656354  0.14910441  1  0  -0.402103  0  3.206213  0  -1.25686  0  -0.340952  0  3.498378  0  0  -0.359638  0  3.513185  0  0  -0.341211  -0.328296  0  3.488089  0
N  N95  1  0.27951551  0.39355658  0.35084891  1  0  -0.40218  0  3.204968  0  -1.256062  0  -0.340504  0  3.496938  0  0  -0.35909  0  3.511538  0  0  -0.341179  -0.327891  0  3.486722  0
N  N96  1  0.04763958  0.87289570  0.71394108  1  0  -0.31876  0  3.185182  0  -0.748126  0  -0.257743  0  3.477854  0  0  -0.274645  0  3.491426  0  0  -0.23386  -0.246358  0  3.468564  0
N  N97  1  0.63452799  0.62696398  0.78611705  1  0  -0.316698  0  3.18541  0  -0.764457  0  -0.255652  0  3.477876  0  0  -0.272559  0  3.491492  0  0  -0.232993  -0.244276  0  3.468564  0
N  N98  1  0.95236989  0.12708487  0.28605635  1  0  -0.318783  0  3.185284  0  -0.748428  0  -0.257632  0  3.477893  0  0  -0.274544  0  3.49146  0  0  -0.233834  -0.246249  0  3.468605  0
N  N99  1  0.36545393  0.37303954  0.21389623  1  0  -0.316995  0  3.185442  0  -0.765097  0  -0.255902  0  3.477974  0  0  -0.272808  0  3.491578  0  0  -0.233226  -0.244526  0  3.468667  0
N  N100  1  0.04589844  0.85532846  0.64861662  1  0  -0.070228  0  2.969448  0  -0.11537  0  -0.068553  0  3.275164  0  0  -0.066866  0  3.285082  0  0  -0.08984  -0.069365  0  3.268314  0
N  N101  1  0.54986494  0.64456259  0.85144521  1  0  -0.070986  0  2.970905  0  -0.122797  0  -0.069302  0  3.276514  0  0  -0.067624  0  3.286458  0  0  -0.090121  -0.070114  0  3.269662  0
N  N102  1  0.95409921  0.14466368  0.35138072  1  0  -0.070476  0  2.969362  0  -0.115439  0  -0.068854  0  3.275088  0  0  -0.067169  0  3.285003  0  0  -0.089998  -0.069665  0  3.268239  0
N  N103  1  0.45012036  0.35543455  0.14856428  1  0  -0.070749  0  2.970463  0  -0.122625  0  -0.069082  0  3.276101  0  0  -0.067401  0  3.286039  0  0  -0.090018  -0.069897  0  3.269252  0
N  N104  1  0.00377002  0.73176153  0.64444379  1  0  -0.083578  0  2.955404  0  -0.127581  0  -0.077574  0  3.25715  0  0  -0.077134  0  3.267834  0  0  -0.097611  -0.077629  0  3.249827  0
N  N105  1  0.37997857  0.76817670  0.85562808  1  0  -0.082987  0  2.955269  0  -0.123283  0  -0.076881  0  3.256898  0  0  -0.076432  0  3.267576  0  0  -0.097241  -0.076944  0  3.249581  0
N  N106  1  0.99623700  0.26822678  0.35555102  1  0  -0.083356  0  2.95543  0  -0.127331  0  -0.077324  0  3.257137  0  0  -0.076882  0  3.267821  0  0  -0.097509  -0.07738  0  3.249815  0
N  N107  1  0.62000594  0.23183072  0.14438072  1  0  -0.083287  0  2.955642  0  -0.122858  0  -0.077221  0  3.257295  0  0  -0.076768  0  3.267969  0  0  -0.097427  -0.07728  0  3.24998  0
N  N108  1  0.97833926  0.66501192  0.70757394  1  0  -0.324111  0  3.17417  0  -0.780853  0  -0.263083  0  3.468081  0  0  -0.280028  0  3.481474  0  0  -0.232094  -0.251648  0  3.458926  0
N  N109  1  0.35094260  0.83492433  0.79249939  1  0  -0.323813  0  3.174108  0  -0.797589  0  -0.262767  0  3.467766  0  0  -0.27973  0  3.481143  0  0  -0.232135  -0.251323  0  3.458608  0
N  N110  1  0.02166573  0.33497764  0.29242346  1  0  -0.32422  0  3.174197  0  -0.780738  0  -0.263159  0  3.468136  0  0  -0.28011  0  3.48151  0  0  -0.232106  -0.251728  0  3.458987  0
N  N111  1  0.64905651  0.16506898  0.20750800  1  0  -0.323544  0  3.174444  0  -0.797866  0  -0.26238  0  3.468004  0  0  -0.279345  0  3.481392  0  0  -0.231897  -0.250939  0  3.458848  0
N  N112  1  0.69097052  0.24790259  0.64132982  1  0  -0.320591  0  3.178961  0  -1.292435  0  -0.260945  0  3.435019  0  0  -0.274763  0  3.451313  0  0  -0.317353  -0.251524  0  3.423518  0
N  N113  1  0.58010445  0.25212330  0.85865815  1  0  -0.31975  0  3.177569  0  -1.275023  0  -0.260699  0  3.433618  0  0  -0.274486  0  3.449887  0  0  -0.317509  -0.251299  0  3.422119  0
N  N114  1  0.30903976  0.75209598  0.35866633  1  0  -0.320849  0  3.178924  0  -1.292272  0  -0.261169  0  3.434971  0  0  -0.274986  0  3.451264  0  0  -0.317464  -0.251761  0  3.423482  0
N  N115  1  0.41989382  0.74788037  0.14134252  1  0  -0.319694  0  3.177635  0  -1.274708  0  -0.260676  0  3.433694  0  0  -0.27446  0  3.449965  0  0  -0.317477  -0.251277  0  3.422195  0
O  O116  1  0.82665525  0.24994877  0.75001582  1  0  -0.812098  0  2.096151  0  -1.282311  0  -0.731668  0  2.371951  0  0  -0.755356  0  2.339056  0  0  -0.558637  -0.714832  0  2.39222  0
O  O117  1  0.17332857  0.75007937  0.24997854  1  0  -0.811979  0  2.095943  0  -1.282326  0  -0.731577  0  2.371784  0  0  -0.755291  0  2.339009  0  0  -0.558613  -0.714746  0  2.392048  0
