# generated using pymatgen
data_Ca3H22C22(SO8)2
_symmetry_space_group_name_H-M   'P 1'
_cell_length_a   10.32402151
_cell_length_b   10.32400785
_cell_length_c   18.72478429
_cell_angle_alpha   79.96799649
_cell_angle_beta   79.96745551
_cell_angle_gamma   81.01874378
_symmetry_Int_Tables_number   1
_chemical_formula_structural   Ca3H22C22(SO8)2
_chemical_formula_sum   'Ca6 H44 C44 S4 O32'
_cell_volume   1918.87450294
_cell_formula_units_Z   2
loop_
 _symmetry_equiv_pos_site_id
 _symmetry_equiv_pos_as_xyz
  1  'x, y, z'
loop_
 _atom_site_type_symbol
 _atom_site_label
 _atom_site_symmetry_multiplicity
 _atom_site_fract_x
 _atom_site_fract_y
 _atom_site_fract_z
 _atom_site_occupancy
 _atom_site_pbe_bader_charge
 _atom_site_pbe_bader_spin_density
 _atom_site_pbe_cm5_charge
 _atom_site_pbe_ddec_charge
 _atom_site_pbe_ddec_spin_density
 _atom_site_pbe_ddec_sum_bond_order
 _atom_site_pbe_magmom
Ca  Ca0  1  0.07852984  0.85440499  0.06432615  1  1.627138  0  0.873316  1.357811  0  1.513756  0
Ca  Ca1  1  0.14559748  0.92147445  0.43567139  1  1.62712  0  0.873336  1.357845  0  1.513724  0
Ca  Ca2  1  0.92147190  0.14559660  0.93566846  1  1.627182  0  0.873339  1.357798  0  1.51376  0
Ca  Ca3  1  0.85440615  0.07852482  0.56432967  1  1.627151  0  0.873329  1.357849  0  1.513662  0
Ca  Ca4  1  0.19786923  0.80213651  0.25000154  1  1.632459  0  0.914057  1.389888  0  1.540157  0
Ca  Ca5  1  0.80212839  0.19786740  0.75000018  1  1.632466  0  0.91405  1.389836  0  1.540196  0
H  H6  1  0.62894792  0.82329888  0.22136059  1  0.099098  0  0.105572  0.105785  0  1.043091  0
H  H7  1  0.54548447  0.88224716  0.44749152  1  0.151816  0  0.116256  0.13027  0  1.000187  0
H  H8  1  0.36656901  0.14167839  0.14894894  1  0.118189  0  0.106237  0.167701  0  1.000242  0
H  H9  1  0.53836473  0.08441298  0.11881293  1  0.140185  0  0.103113  0.162837  0  1.023889  0
H  H10  1  0.44667066  0.99292807  0.19845849  1  0.125107  0  0.114282  0.174746  0  1.012132  0
H  H11  1  0.92948926  0.93643592  0.32215741  1  0.124483  0  0.117411  0.102361  0  1.068025  0
H  H12  1  0.50897271  0.77041953  0.14801640  1  0.100057  0  0.119753  0.184025  0  0.98925  0
H  H13  1  0.61661915  0.85479619  0.07309274  1  0.084819  0  0.111217  0.17277  0  1.003179  0
H  H14  1  0.50150081  0.75476615  0.05428240  1  0.08669  0  0.115928  0.179206  0  0.961843  0
H  H15  1  0.25426441  0.79717002  0.93012069  1  0.618919  0  0.33936  0.409553  0  0.86307  0
H  H16  1  0.22083280  0.95279862  0.91899172  1  0.643291  0  0.30413  0.393663  0  0.944407  0
H  H17  1  0.17670714  0.37105503  0.27863577  1  0.099146  0  0.105573  0.105756  0  1.043135  0
H  H18  1  0.11773695  0.45451845  0.05250825  1  0.151759  0  0.116292  0.13037  0  0.999998  0
H  H19  1  0.85832377  0.63343635  0.35105018  1  0.117997  0  0.106254  0.167683  0  1.000275  0
H  H20  1  0.91558795  0.46163964  0.38118526  1  0.140257  0  0.103114  0.162836  0  1.023873  0
H  H21  1  0.00707476  0.55333120  0.30154078  1  0.12508  0  0.114345  0.174827  0  1.012167  0
H  H22  1  0.06356140  0.07051007  0.17784704  1  0.124841  0  0.117378  0.102358  0  1.067975  0
H  H23  1  0.22958234  0.49102813  0.35198337  1  0.100049  0  0.119722  0.183998  0  0.989221  0
H  H24  1  0.14520068  0.38338636  0.42690646  1  0.084836  0  0.111179  0.172743  0  1.003258  0
H  H25  1  0.24523303  0.49850135  0.44571854  1  0.086721  0  0.11591  0.179183  0  0.961821  0
H  H26  1  0.20283110  0.74573725  0.56987847  1  0.618909  0  0.339338  0.409528  0  0.863124  0
H  H27  1  0.04720238  0.77916857  0.58100584  1  0.643313  0  0.304111  0.393632  0  0.944444  0
H  H28  1  0.37104880  0.17670326  0.77863710  1  0.099284  0  0.105578  0.10577  0  1.043135  0
H  H29  1  0.45451626  0.11774757  0.55250808  1  0.151778  0  0.116253  0.13031  0  1.000111  0
H  H30  1  0.63343455  0.85832379  0.85105400  1  0.118128  0  0.106224  0.167697  0  1.000218  0
H  H31  1  0.46163988  0.91558814  0.88118734  1  0.140245  0  0.103098  0.162822  0  1.023913  0
H  H32  1  0.55332890  0.00707456  0.80154638  1  0.125199  0  0.114285  0.174761  0  1.012068  0
H  H33  1  0.07050952  0.06355809  0.67784136  1  0.124838  0  0.11741  0.102403  0  1.068012  0
H  H34  1  0.49102588  0.22958325  0.85198694  1  0.1001  0  0.119748  0.184004  0  0.989146  0
H  H35  1  0.38337657  0.14519809  0.92691109  1  0.084759  0  0.111222  0.172756  0  1.003127  0
H  H36  1  0.49849588  0.24523097  0.94572055  1  0.08662  0  0.115917  0.179203  0  0.961775  0
H  H37  1  0.74574123  0.20282706  0.06987932  1  0.61892  0  0.339367  0.409559  0  0.863027  0
H  H38  1  0.77917187  0.04719859  0.08100730  1  0.643254  0  0.304105  0.393657  0  0.944407  0
H  H39  1  0.82329441  0.62895133  0.72136645  1  0.099287  0  0.105564  0.105755  0  1.04315  0
H  H40  1  0.88225479  0.54548228  0.94749215  1  0.151793  0  0.116242  0.130302  0  1.000121  0
H  H41  1  0.14167482  0.36657139  0.64895057  1  0.118033  0  0.106263  0.167717  0  1.000221  0
H  H42  1  0.08441071  0.53836221  0.61881495  1  0.140213  0  0.103113  0.162822  0  1.023876  0
H  H43  1  0.99292192  0.44667289  0.69845780  1  0.125074  0  0.114323  0.174821  0  1.012125  0
H  H44  1  0.93644610  0.92948963  0.82215791  1  0.124822  0  0.117414  0.102423  0  1.067981  0
H  H45  1  0.77041542  0.50897194  0.64801281  1  0.100061  0  0.11973  0.183992  0  0.989144  0
H  H46  1  0.85480196  0.61661900  0.57309041  1  0.084791  0  0.111211  0.172771  0  1.003163  0
H  H47  1  0.75477461  0.50149748  0.55427954  1  0.086688  0  0.115921  0.179216  0  0.961863  0
H  H48  1  0.79717355  0.25425895  0.43012224  1  0.618945  0  0.339378  0.409583  0  0.863006  0
H  H49  1  0.95280026  0.22083082  0.41899477  1  0.643272  0  0.304142  0.393726  0  0.944321  0
C  C50  1  0.88079971  0.88032166  0.19280363  1  1.565539  0  0.226329  0.610564  0  4.179976  0
C  C51  1  0.66085063  0.84868926  0.26890129  1  -0.077965  0  -0.077428  -0.106985  0  3.952948  0
C  C52  1  0.43590506  0.81201606  0.33814553  1  1.596993  0  0.224176  0.611164  0  4.219285  0
C  C53  1  0.74344630  0.91122055  0.39170885  1  -0.020063  0  -0.017256  -0.039212  0  3.973033  0
C  C54  1  0.57391487  0.84559311  0.33528148  1  -0.067802  0  -0.017826  -0.046095  0  3.968076  0
C  C55  1  0.78836664  0.88221620  0.26339873  1  -0.039734  0  -0.022785  -0.056344  0  4.026436  0
C  C56  1  0.61468755  0.87908516  0.39652181  1  0.029933  0  -0.061117  -0.081921  0  3.873063  0
C  C57  1  0.44149477  0.05443497  0.14471978  1  -0.316084  0  -0.226505  -0.499409  0  3.789048  0
C  C58  1  0.82983931  0.91188165  0.32529736  1  -0.090316  0  -0.071253  -0.111244  0  3.949618  0
C  C59  1  0.78827544  0.94830334  0.45681973  1  1.573883  0  0.203135  0.574544  0  4.247685  0
C  C60  1  0.51922676  0.82015312  0.09086524  1  -0.195199  0  -0.21976  -0.514504  0  3.810382  0
C  C61  1  0.11967237  0.11920715  0.30719882  1  1.565579  0  0.22642  0.61078  0  4.179876  0
C  C62  1  0.15130947  0.33914944  0.23109917  1  -0.078139  0  -0.077419  -0.106919  0  3.953123  0
C  C63  1  0.18797417  0.56409536  0.16185295  1  1.596943  0  0.224222  0.611263  0  4.218944  0
C  C64  1  0.08876717  0.25655252  0.10829373  1  -0.020361  0  -0.01732  -0.039143  0  3.972744  0
C  C65  1  0.15440655  0.42608296  0.16471665  1  -0.067855  0  -0.017848  -0.04613  0  3.968213  0
C  C66  1  0.11778182  0.21163769  0.23660436  1  -0.039603  0  -0.022798  -0.056473  0  4.02663  0
C  C67  1  0.12090331  0.38531197  0.10347822  1  0.030035  0  -0.06109  -0.082015  0  3.872956  0
C  C68  1  0.94556697  0.55851023  0.35527843  1  -0.316024  0  -0.226579  -0.499459  0  3.789099  0
C  C69  1  0.08811864  0.17015952  0.17470600  1  -0.090547  0  -0.07118  -0.111197  0  3.949406  0
C  C70  1  0.05168961  0.21171870  0.04318278  1  1.573779  0  0.203095  0.574347  0  4.247645  0
C  C71  1  0.17984705  0.48077509  0.40913469  1  -0.195199  0  -0.219687  -0.514437  0  3.810289  0
C  C72  1  0.11920205  0.11967199  0.80719491  1  1.565583  0  0.226318  0.610503  0  4.180357  0
C  C73  1  0.33914607  0.15131385  0.73109685  1  -0.078089  0  -0.077426  -0.106961  0  3.952885  0
C  C74  1  0.56409378  0.18797800  0.66185002  1  1.596962  0  0.224264  0.611221  0  4.219015  0
C  C75  1  0.25654849  0.08877590  0.60829006  1  -0.02006  0  -0.017299  -0.039293  0  3.973062  0
C  C76  1  0.42608088  0.15440618  0.66471708  1  -0.06773  0  -0.017897  -0.04625  0  3.968288  0
C  C77  1  0.21163209  0.11777975  0.73660147  1  -0.039464  0  -0.022737  -0.056202  0  4.026207  0
C  C78  1  0.38531025  0.12090998  0.60347588  1  0.029864  0  -0.060999  -0.081805  0  3.872933  0
C  C79  1  0.55850975  0.94556905  0.85528344  1  -0.316205  0  -0.226464  -0.499397  0  3.789007  0
C  C80  1  0.17015743  0.08811751  0.67470167  1  -0.090989  0  -0.071247  -0.111298  0  3.949599  0
C  C81  1  0.21172430  0.05169549  0.54317745  1  1.574062  0  0.20312  0.574546  0  4.247761  0
C  C82  1  0.48076890  0.17984608  0.90913814  1  -0.195108  0  -0.219722  -0.514444  0  3.810112  0
C  C83  1  0.88033321  0.88079483  0.69280182  1  1.565555  0  0.226364  0.610637  0  4.179946  0
C  C84  1  0.84868714  0.66085158  0.76890557  1  -0.0781  0  -0.077456  -0.10704  0  3.952955  0
C  C85  1  0.81201854  0.43590224  0.83815085  1  1.596941  0  0.224256  0.611259  0  4.218886  0
C  C86  1  0.91122950  0.74345156  0.89170539  1  -0.019955  0  -0.017245  -0.039179  0  3.972829  0
C  C87  1  0.84558913  0.57391725  0.83528558  1  -0.068295  0  -0.017926  -0.046238  0  3.968074  0
C  C88  1  0.88222081  0.78836369  0.76339553  1  -0.039628  0  -0.022749  -0.056297  0  4.026404  0
C  C89  1  0.87909334  0.61469109  0.89652313  1  0.030352  0  -0.061038  -0.081885  0  3.873003  0
C  C90  1  0.05442772  0.44149408  0.64472085  1  -0.315977  0  -0.226565  -0.499501  0  3.789086  0
C  C91  1  0.91188994  0.82984313  0.82529218  1  -0.090547  0  -0.071238  -0.111264  0  3.949534  0
C  C92  1  0.94830905  0.78828215  0.95681806  1  1.573593  0  0.203072  0.574388  0  4.247665  0
C  C93  1  0.82015662  0.51922722  0.59086129  1  -0.195191  0  -0.219697  -0.514476  0  3.810292  0
S  S94  1  0.39136385  0.95981672  0.08477302  1  1.177555  0  0.318182  0.678415  0  4.036166  0
S  S95  1  0.04018333  0.60863901  0.41522646  1  1.177714  0  0.318208  0.678447  0  4.036029  0
S  S96  1  0.60863769  0.04018864  0.91523035  1  1.177659  0  0.31814  0.678376  0  4.036125  0
S  S97  1  0.95981534  0.39136284  0.58477321  1  1.177696  0  0.318171  0.678425  0  4.036086  0
O  O98  1  0.00549010  0.85210769  0.19596348  1  -1.243925  0  -0.40891  -0.667502  0  2.28831  0
O  O99  1  0.91308348  0.95257975  0.45494268  1  -1.243965  0  -0.409928  -0.697604  0  2.298351  0
O  O100  1  0.26513114  0.90575029  0.12632938  1  -1.288618  0  -0.394327  -0.647632  0  2.276874  0
O  O101  1  0.35721972  0.80955979  0.39803258  1  -1.219232  0  -0.368128  -0.625433  0  2.20019  0
O  O102  1  0.70282979  0.97853075  0.51025439  1  -1.189064  0  -0.349675  -0.579826  0  2.133756  0
O  O103  1  0.83715247  0.90295838  0.13181012  1  -1.208404  0  -0.321517  -0.590354  0  2.179755  0
O  O104  1  0.40681017  0.79075399  0.27768783  1  -1.221332  0  -0.399951  -0.660569  0  2.205903  0
O  O105  1  0.25252129  0.87409512  0.95395180  1  -1.25826  0  -0.589047  -0.78576  0  1.969663  0
O  O106  1  0.14788159  0.99451586  0.30403689  1  -1.243785  0  -0.408935  -0.667583  0  2.288164  0
O  O107  1  0.04741623  0.08691367  0.04505843  1  -1.243935  0  -0.409883  -0.697464  0  2.298401  0
O  O108  1  0.09425267  0.73487111  0.37366955  1  -1.288688  0  -0.39436  -0.647659  0  2.276869  0
O  O109  1  0.19043926  0.64277393  0.10196538  1  -1.219298  0  -0.368157  -0.625496  0  2.200095  0
O  O110  1  0.02146433  0.29716783  0.98974444  1  -1.189042  0  -0.349714  -0.579799  0  2.133609  0
O  O111  1  0.09703598  0.16285787  0.36818949  1  -1.208498  0  -0.32157  -0.59042  0  2.179794  0
O  O112  1  0.20924334  0.59319709  0.22230728  1  -1.221115  0  -0.399953  -0.660587  0  2.205636  0
O  O113  1  0.12590788  0.74748094  0.54604521  1  -1.25825  0  -0.589009  -0.785723  0  1.969803  0
O  O114  1  0.99450871  0.14788139  0.80403626  1  -1.243962  0  -0.408883  -0.667462  0  2.288384  0
O  O115  1  0.08691825  0.04741886  0.54505380  1  -1.244118  0  -0.409916  -0.697565  0  2.298459  0
O  O116  1  0.73487144  0.09425302  0.87367195  1  -1.288672  0  -0.394325  -0.647623  0  2.276802  0
O  O117  1  0.64277409  0.19043183  0.60196845  1  -1.219277  0  -0.368141  -0.625376  0  2.20016  0
O  O118  1  0.29716999  0.02146712  0.48974127  1  -1.189195  0  -0.349739  -0.579874  0  2.133641  0
O  O119  1  0.16285033  0.09703422  0.86818574  1  -1.208399  0  -0.321562  -0.590367  0  2.179982  0
O  O120  1  0.59319145  0.20925544  0.72230769  1  -1.221183  0  -0.40003  -0.660645  0  2.205555  0
O  O121  1  0.74748141  0.12590235  0.04604684  1  -1.258176  0  -0.58904  -0.785787  0  1.96967  0
O  O122  1  0.85212200  0.00548736  0.69596328  1  -1.243816  0  -0.408865  -0.667509  0  2.288215  0
O  O123  1  0.95258636  0.91308468  0.95494548  1  -1.244142  0  -0.409906  -0.697485  0  2.298391  0
O  O124  1  0.90575099  0.26512720  0.62632999  1  -1.288662  0  -0.394357  -0.647643  0  2.276739  0
O  O125  1  0.80956340  0.35722549  0.89803362  1  -1.219373  0  -0.368135  -0.625415  0  2.200265  0
O  O126  1  0.97853536  0.70283194  0.01025480  1  -1.189007  0  -0.349685  -0.57979  0  2.133632  0
O  O127  1  0.90296467  0.83713779  0.63181377  1  -1.208422  0  -0.321614  -0.590387  0  2.179761  0
O  O128  1  0.79074143  0.40680940  0.77769269  1  -1.22112  0  -0.399983  -0.66057  0  2.205453  0
O  O129  1  0.87409676  0.25251724  0.45395479  1  -1.258238  0  -0.589085  -0.785878  0  1.969629  0
