# generated using pymatgen
data_CoH15C20(NO2)3
_symmetry_space_group_name_H-M   'P 1'
_cell_length_a   9.23942931
_cell_length_b   10.10885240
_cell_length_c   11.65034429
_cell_angle_alpha   72.65242655
_cell_angle_beta   76.66321826
_cell_angle_gamma   69.00254496
_symmetry_Int_Tables_number   1
_chemical_formula_structural   CoH15C20(NO2)3
_chemical_formula_sum   'Co2 H30 C40 N6 O12'
_cell_volume   960.26874084
_cell_formula_units_Z   2
loop_
 _symmetry_equiv_pos_site_id
 _symmetry_equiv_pos_as_xyz
  1  'x, y, z'
loop_
 _atom_site_type_symbol
 _atom_site_label
 _atom_site_symmetry_multiplicity
 _atom_site_fract_x
 _atom_site_fract_y
 _atom_site_fract_z
 _atom_site_occupancy
 _atom_site_pbe_cm5_charge
 _atom_site_pbe_ddec_charge
 _atom_site_pbe_ddec_spin_density
 _atom_site_pbe_ddec_sum_bond_order
 _atom_site_pbe_magmom
Co  Co0  1  0.43642363  0.37851311  0.88220945  1  0.659008  0.713815  -1.097209  2.861993  -1.018
Co  Co1  1  0.56358495  0.62147654  0.11778204  1  0.659063  0.714003  -1.097441  2.861663  -1.018
H  H2  1  0.32230818  0.21352056  0.57573151  1  0.113132  0.117637  6.3e-05  1.035661  0.0
H  H3  1  0.67768369  0.78645771  0.42429918  1  0.113061  0.117615  6.2e-05  1.035853  0.0
H  H4  1  0.32542029  0.76919290  0.65164970  1  0.113304  0.113468  6.2e-05  1.057756  0.0
H  H5  1  0.67458655  0.23078449  0.34836487  1  0.11333  0.113528  6.1e-05  1.057699  0.0
H  H6  1  0.41112822  0.92541360  0.92730697  1  0.11456  0.121711  0.000485  1.024379  0.0
H  H7  1  0.58886332  0.07455929  0.07271995  1  0.114527  0.121623  0.000483  1.024501  0.0
H  H8  1  0.17840193  0.58936118  0.00068779  1  0.117964  0.089958  0.000132  1.034902  0.0
H  H9  1  0.82161692  0.41063859  0.99927708  1  0.117949  0.08999  0.000132  1.034813  0.0
H  H10  1  0.97830538  0.57601219  0.18211564  1  0.10642  0.120644  0.000116  1.013834  0.0
H  H11  1  0.02171009  0.42400384  0.81785438  1  0.10637  0.12057  0.000116  1.013888  0.0
H  H12  1  0.13899521  0.10878910  0.23072033  1  0.104711  0.112079  6e-05  1.013539  0.0
H  H13  1  0.86102863  0.89121656  0.76929544  1  0.104696  0.111982  6e-05  1.013619  0.0
H  H14  1  0.33193397  0.14004212  0.04747149  1  0.117397  0.093049  0.000326  1.040487  0.0
H  H15  1  0.66812776  0.85994264  0.95256176  1  0.117438  0.093033  0.000326  1.040587  0.0
H  H16  1  0.92871887  0.21294499  0.37534533  1  0.091571  0.09476  5.9e-05  1.000345  0.0
H  H17  1  0.07128208  0.78708399  0.62463344  1  0.091594  0.094843  5.9e-05  1.000383  0.0
H  H18  1  0.80945685  0.39312583  0.31678578  1  0.100986  0.113042  0.000401  1.007888  0.0
H  H19  1  0.19056414  0.60690324  0.68318605  1  0.100989  0.113017  0.000401  1.007969  0.0
H  H20  1  0.07993380  0.31580431  0.46066897  1  0.091103  0.093909  0.000142  1.022153  0.0
H  H21  1  0.92004977  0.68422534  0.53934356  1  0.091015  0.093749  0.000141  1.022296  0.0
H  H22  1  0.96502737  0.49418089  0.39664484  1  0.097456  0.1016  0.000181  1.004679  0.0
H  H23  1  0.03493499  0.50584207  0.60337990  1  0.097425  0.101483  0.000181  1.00485  0.0
H  H24  1  0.66237889  0.56071252  0.45603531  1  0.106171  0.123369  4.5e-05  1.043041  0.0
H  H25  1  0.33759136  0.43925009  0.54394378  1  0.106153  0.123331  4.6e-05  1.043056  0.0
H  H26  1  0.46045153  0.55554236  0.63998747  1  0.118518  0.08398  2.8e-05  1.042031  0.0
H  H27  1  0.53950770  0.44442359  0.35998584  1  0.118478  0.083991  2.8e-05  1.042004  0.0
H  H28  1  0.76649256  0.20745325  0.84492776  1  0.123986  0.099982  0.000295  0.984223  0.0
H  H29  1  0.23349608  0.79261000  0.15509446  1  0.123998  0.099948  0.000295  0.984228  0.0
H  H30  1  0.98307553  0.19818462  0.67000771  1  0.102421  0.111158  8.7e-05  1.010232  0.0
H  H31  1  0.01691758  0.80185255  0.33001160  1  0.102421  0.111172  8.7e-05  1.010142  0.0
C  C32  1  0.36905120  0.08231981  0.75575394  1  -0.009822  -0.008585  0.000386  3.968949  -0.001
C  C33  1  0.63089559  0.91767047  0.24427388  1  -0.009998  -0.008959  0.000391  3.969039  -0.001
C  C34  1  0.33539498  0.10740556  0.63868858  1  -0.074148  -0.143023  0.008081  3.951928  0.005
C  C35  1  0.66457956  0.89257821  0.36133775  1  -0.074048  -0.142919  0.008039  3.951746  0.005
C  C36  1  0.32123938  0.99281578  0.60365337  1  0.068807  0.048422  0.001847  3.993507  0.0
C  C37  1  0.67874977  0.00717147  0.39635582  1  0.068925  0.048562  0.001842  3.993582  0.0
C  C38  1  0.33694831  0.85580911  0.68220383  1  -0.068829  -0.124536  0.002935  3.93107  0.001
C  C39  1  0.66304635  0.14417156  0.31780947  1  -0.06888  -0.124671  0.002884  3.93136  0.001
C  C40  1  0.36875875  0.83163380  0.79956355  1  -0.008691  -0.010431  -0.000102  3.939273  -0.001
C  C41  1  0.63124924  0.16834363  0.20044737  1  -0.008583  -0.010238  -9.6e-05  3.939436  -0.001
C  C42  1  0.38576529  0.94500555  0.83581276  1  -0.061433  -0.090915  0.011637  3.872554  0.006
C  C43  1  0.61421004  0.05497936  0.16420885  1  -0.061296  -0.090574  0.011577  3.872598  0.006
C  C44  1  0.38247191  0.20611994  0.79274737  1  0.202025  0.540577  0.003098  4.189914  0.002
C  C45  1  0.61745852  0.79390983  0.20725548  1  0.202243  0.540642  0.003101  4.190094  0.002
C  C46  1  0.38657756  0.68455837  0.88636804  1  0.219554  0.575955  -0.004586  4.15769  -0.008
C  C47  1  0.61348977  0.31538554  0.11362629  1  0.21964  0.575844  -0.004591  4.15679  -0.008
C  C48  1  0.16694096  0.48481653  0.05406167  1  0.042643  0.090202  0.006601  3.937096  0.004
C  C49  1  0.83309091  0.51518291  0.94593021  1  0.042613  0.090401  0.006602  3.936567  0.004
C  C50  1  0.05570177  0.47595943  0.15634099  1  -0.084556  -0.178093  -0.000116  3.929679  -0.001
C  C51  1  0.94432868  0.52405421  0.84364590  1  -0.084368  -0.178009  -0.000116  3.92944  -0.001
C  C52  1  0.04174909  0.34017532  0.22455515  1  0.013257  0.176571  0.00812  3.926736  0.005
C  C53  1  0.95828380  0.65983707  0.77544450  1  0.013234  0.176587  0.008119  3.926766  0.005
C  C54  1  0.14146984  0.21840542  0.18187430  1  -0.088552  -0.181429  0.000128  3.970821  -0.001
C  C55  1  0.85856143  0.78160463  0.81813823  1  -0.08865  -0.181355  0.000129  3.970757  -0.001
C  C56  1  0.25131420  0.23459024  0.07944160  1  0.035061  0.073628  0.007831  3.933969  0.005
C  C57  1  0.74873292  0.76541214  0.92057523  1  0.03505  0.073624  0.007829  3.933831  0.005
C  C58  1  0.92761916  0.32677040  0.33886587  1  -0.155386  -0.193461  0.000848  3.897071  0.0
C  C59  1  0.07238684  0.67325299  0.66112457  1  -0.155442  -0.193684  0.000848  3.897362  0.0
C  C60  1  0.96276546  0.38163280  0.43668420  1  -0.157275  -0.195966  0.000809  3.919008  0.0
C  C61  1  0.03722009  0.61838828  0.56331638  1  -0.157133  -0.19553  0.000807  3.919038  0.0
C  C62  1  0.84123246  0.38002863  0.54721884  1  0.012585  0.170185  0.007538  3.943141  0.005
C  C63  1  0.15874575  0.61996858  0.45277690  1  0.012531  0.170031  0.007532  3.942923  0.005
C  C64  1  0.69101207  0.48120404  0.54100628  1  -0.087945  -0.189489  -0.000369  3.929664  -0.001
C  C65  1  0.30895189  0.51877379  0.45897356  1  -0.087812  -0.189223  -0.000368  3.929607  -0.001
C  C66  1  0.57800506  0.47899220  0.64221326  1  0.046256  0.094923  0.005482  3.928312  0.003
C  C67  1  0.42195712  0.52098461  0.35776114  1  0.046083  0.094559  0.005478  3.928883  0.003
C  C68  1  0.74955634  0.28361915  0.75693133  1  0.051729  0.098233  0.00767  3.911335  0.005
C  C69  1  0.25042550  0.71640302  0.24306962  1  0.051759  0.098387  0.007664  3.911493  0.005
C  C70  1  0.86875558  0.28002011  0.65874144  1  -0.086186  -0.183973  -0.000245  3.94723  -0.001
C  C71  1  0.13123624  0.71999551  0.34126112  1  -0.086161  -0.184033  -0.000245  3.947143  -0.001
N  N72  1  0.29333680  0.01603715  0.47953197  1  0.045694  0.503091  0.021477  4.194324  0.016
N  N73  1  0.70667449  0.98397288  0.52048232  1  0.045782  0.503352  0.021331  4.194936  0.016
N  N74  1  0.26715549  0.36593373  0.01554145  1  -0.336588  -0.207027  0.01069  3.630944  0.007
N  N75  1  0.73288729  0.63405571  0.98446646  1  -0.336525  -0.207187  0.010694  3.630263  0.007
N  N76  1  0.60558885  0.38199451  0.74932745  1  -0.337552  -0.181827  0.010266  3.625911  0.007
N  N77  1  0.39437832  0.61800277  0.25066333  1  -0.337377  -0.181719  0.010273  3.625875  0.007
O  O78  1  0.47040005  0.17732454  0.87449454  1  -0.295044  -0.49616  0.006428  2.345651  0.005
O  O79  1  0.52951714  0.82270858  0.12550205  1  -0.295076  -0.496222  0.00641  2.345007  0.005
O  O80  1  0.30800112  0.33558092  0.74490245  1  -0.295734  -0.532334  -0.025886  2.207047  -0.042
O  O81  1  0.69194354  0.66443208  0.25504971  1  -0.295904  -0.532335  -0.025906  2.207386  -0.042
O  O82  1  0.40058116  0.66867437  0.99482818  1  -0.300422  -0.553219  -0.013922  2.406253  -0.021
O  O83  1  0.59956845  0.33122404  0.00514938  1  -0.3006  -0.553554  -0.013895  2.405202  -0.021
O  O84  1  0.37893350  0.58678813  0.83984349  1  -0.300149  -0.517484  -0.009342  2.500566  -0.015
O  O85  1  0.62108593  0.41319623  0.16013626  1  -0.300155  -0.517306  -0.009362  2.500173  -0.015
O  O86  1  0.26276798  0.91887357  0.45321696  1  -0.143047  -0.352975  0.014038  1.925965  0.01
O  O87  1  0.73726006  0.08113810  0.54675367  1  -0.142904  -0.352924  0.013941  1.92639  0.01
O  O88  1  0.30324322  0.13168938  0.40605211  1  -0.125235  -0.335222  0.013765  1.994757  0.01
O  O89  1  0.69675352  0.86835642  0.59397301  1  -0.125179  -0.335227  0.013667  1.995374  0.01
