# generated using pymatgen
data_BaH14C20N6(ClO4)2
_symmetry_space_group_name_H-M   'P 1'
_cell_length_a   8.15605069
_cell_length_b   8.95731865
_cell_length_c   15.86553993
_cell_angle_alpha   89.99996839
_cell_angle_beta   102.70982049
_cell_angle_gamma   89.99998560
_symmetry_Int_Tables_number   1
_chemical_formula_structural   BaH14C20N6(ClO4)2
_chemical_formula_sum   'Ba2 H28 C40 N12 Cl4 O16'
_cell_volume   1130.67728531
_cell_formula_units_Z   2
loop_
 _symmetry_equiv_pos_site_id
 _symmetry_equiv_pos_as_xyz
  1  'x, y, z'
loop_
 _atom_site_type_symbol
 _atom_site_label
 _atom_site_symmetry_multiplicity
 _atom_site_fract_x
 _atom_site_fract_y
 _atom_site_fract_z
 _atom_site_occupancy
 _atom_site_hle17_bader_spin_density
 _atom_site_hle17_ddec_charge
 _atom_site_hle17_ddec_spin_density
 _atom_site_hle17_ddec_sum_bond_order
 _atom_site_hle17_magmom
 _atom_site_hse06_10hf_bader_spin_density
 _atom_site_hse06_10hf_ddec_charge
 _atom_site_hse06_10hf_ddec_spin_density
 _atom_site_hse06_10hf_ddec_sum_bond_order
 _atom_site_hse06_10hf_magmom
 _atom_site_hse06_bader_spin_density
 _atom_site_hse06_ddec_charge
 _atom_site_hse06_ddec_spin_density
 _atom_site_hse06_ddec_sum_bond_order
 _atom_site_hse06_magmom
 _atom_site_pbe_bader_spin_density
 _atom_site_pbe_cm5_charge
 _atom_site_pbe_ddec_charge
 _atom_site_pbe_ddec_spin_density
 _atom_site_pbe_ddec_sum_bond_order
 _atom_site_pbe_magmom
Ba  Ba0  1  0.00000035  0.82716371  0.24999960  1  0  1.550472  0  1.217572  0  0  1.398173  0  1.630338  0  0  1.436704  0  1.589288  0  0  0.795897  1.370889  0  1.659502  0
Ba  Ba1  1  0.00000028  0.17283595  0.75000033  1  0  1.550485  0  1.217582  0  0  1.398188  0  1.630351  0  0  1.436726  0  1.589291  0  0  0.795883  1.370899  0  1.659511  0
H  H2  1  0.40773564  0.34039630  0.32365275  1  0  0.383832  0  0.933107  0  0  0.351045  0  1.012852  0  0  0.364219  0  0.995096  0  0  0.292634  0.341857  0  1.02247  0
H  H3  1  0.59226692  0.34039859  0.17634846  1  0  0.383816  0  0.93302  0  0  0.350947  0  1.012976  0  0  0.364122  0  0.995219  0  0  0.292582  0.341757  0  1.022556  0
H  H4  1  0.59226665  0.65960213  0.67634776  1  0  0.383811  0  0.933042  0  0  0.350942  0  1.012989  0  0  0.364116  0  0.995232  0  0  0.292587  0.341753  0  1.022575  0
H  H5  1  0.40773411  0.65960208  0.82365191  1  0  0.383809  0  0.933048  0  0  0.350947  0  1.01298  0  0  0.364121  0  0.995224  0  0  0.292596  0.341758  0  1.022569  0
H  H6  1  0.99085909  0.48090156  0.11008258  1  0  0.310066  0  0.913093  0  0  0.285443  0  0.987908  0  0  0.295061  0  0.979881  0  0  0.28829  0.278739  0  0.993575  0
H  H7  1  0.00914089  0.48090265  0.38991705  1  0  0.310064  0  0.913076  0  0  0.285442  0  0.987895  0  0  0.29506  0  0.979868  0  0  0.288287  0.278738  0  0.993563  0
H  H8  1  0.00914194  0.51909687  0.88991780  1  0  0.31006  0  0.913149  0  0  0.285435  0  0.987965  0  0  0.295054  0  0.979937  0  0  0.28829  0.278732  0  0.993632  0
H  H9  1  0.99085888  0.51909690  0.61008319  1  0  0.310045  0  0.913094  0  0  0.285423  0  0.987913  0  0  0.295041  0  0.979886  0  0  0.288283  0.278719  0  0.993579  0
H  H10  1  0.45859391  0.10496286  0.85818381  1  0  0.305876  0  0.909833  0  0  0.281593  0  0.9758  0  0  0.292081  0  0.967348  0  0  0.31716  0.274159  0  0.981654  0
H  H11  1  0.54140582  0.10496407  0.64181592  1  0  0.305902  0  0.909811  0  0  0.281607  0  0.975782  0  0  0.292094  0  0.967332  0  0  0.317171  0.274172  0  0.981637  0
H  H12  1  0.54140460  0.89503669  0.14181565  1  0  0.305887  0  0.909836  0  0  0.281594  0  0.975805  0  0  0.292081  0  0.967355  0  0  0.317165  0.274161  0  0.98166  0
H  H13  1  0.45859395  0.89503659  0.35818431  1  0  0.305887  0  0.909831  0  0  0.2816  0  0.9758  0  0  0.292088  0  0.967349  0  0  0.317164  0.274167  0  0.981656  0
H  H14  1  0.87803635  0.96797594  0.04329617  1  0  0.118934  0  0.982531  0  0  0.122032  0  1.053303  0  0  0.125819  0  1.051864  0  0  0.110289  0.117517  0  1.057376  0
H  H15  1  0.12196468  0.96797582  0.45670342  1  0  0.118948  0  0.982526  0  0  0.122018  0  1.053333  0  0  0.125804  0  1.051894  0  0  0.110292  0.117506  0  1.057399  0
H  H16  1  0.12196468  0.03202473  0.95670357  1  0  0.118944  0  0.982476  0  0  0.122016  0  1.053299  0  0  0.125801  0  1.051861  0  0  0.110279  0.117505  0  1.057363  0
H  H17  1  0.87803509  0.03202261  0.54329618  1  0  0.118935  0  0.982547  0  0  0.122032  0  1.053325  0  0  0.125818  0  1.051885  0  0  0.110293  0.117518  0  1.057393  0
H  H18  1  0.62776733  0.91409445  0.92430484  1  0  0.111684  0  0.952924  0  0  0.115244  0  1.019492  0  0  0.119365  0  1.015516  0  0  0.127528  0.112325  0  1.022124  0
H  H19  1  0.37223206  0.91409577  0.57569460  1  0  0.111651  0  0.952922  0  0  0.115212  0  1.019501  0  0  0.119335  0  1.015518  0  0  0.127521  0.112293  0  1.022132  0
H  H20  1  0.37223244  0.08590509  0.07569413  1  0  0.11165  0  0.952908  0  0  0.115212  0  1.019488  0  0  0.119336  0  1.015504  0  0  0.127525  0.112294  0  1.02212  0
H  H21  1  0.62776771  0.08590489  0.42430563  1  0  0.111674  0  0.952912  0  0  0.11524  0  1.019485  0  0  0.119359  0  1.015511  0  0  0.127535  0.112321  0  1.022117  0
H  H22  1  0.50150936  0.36216146  0.89380116  1  0  0.112826  0  0.963133  0  0  0.116399  0  1.028375  0  0  0.120581  0  1.02392  0  0  0.130127  0.113254  0  1.031729  0
H  H23  1  0.49848901  0.36216271  0.60619896  1  0  0.112889  0  0.963107  0  0  0.116471  0  1.028326  0  0  0.120652  0  1.023875  0  0  0.130169  0.113328  0  1.031678  0
H  H24  1  0.49848916  0.63783921  0.10619893  1  0  0.112832  0  0.963116  0  0  0.116409  0  1.028358  0  0  0.12059  0  1.023905  0  0  0.130135  0.113267  0  1.031711  0
H  H25  1  0.50150950  0.63783795  0.39380049  1  0  0.112871  0  0.963128  0  0  0.116457  0  1.028348  0  0  0.120637  0  1.023897  0  0  0.130168  0.113316  0  1.0317  0
H  H26  1  0.74661011  0.43855861  0.01212303  1  0  0.127981  0  0.969562  0  0  0.133683  0  1.033274  0  0  0.137812  0  1.031412  0  0  0.101251  0.129469  0  1.036295  0
H  H27  1  0.25338990  0.43855955  0.48787661  1  0  0.12797  0  0.969546  0  0  0.133667  0  1.033264  0  0  0.137795  0  1.031403  0  0  0.101252  0.129452  0  1.036286  0
H  H28  1  0.25339092  0.56144094  0.98787671  1  0  0.127992  0  0.96955  0  0  0.13369  0  1.033263  0  0  0.137819  0  1.031401  0  0  0.101256  0.129475  0  1.036285  0
H  H29  1  0.74660862  0.56143888  0.51212222  1  0  0.12791  0  0.969624  0  0  0.133662  0  1.033276  0  0  0.137791  0  1.031415  0  0  0.101252  0.129447  0  1.0363  0
C  C30  1  0.31273930  0.11828522  0.28071584  1  0  0.645644  0  3.903837  0  0  0.589803  0  4.21291  0  0  0.624039  0  4.203628  0  0  0.221226  0.566535  0  4.218413  0
C  C31  1  0.68726084  0.11828856  0.21928391  1  0  0.645632  0  3.903845  0  0  0.58983  0  4.21284  0  0  0.624065  0  4.203557  0  0  0.221228  0.566562  0  4.218341  0
C  C32  1  0.68725921  0.88171097  0.71928362  1  0  0.64572  0  3.903754  0  0  0.589819  0  4.212895  0  0  0.624054  0  4.203613  0  0  0.221212  0.566548  0  4.218394  0
C  C33  1  0.31274019  0.88171210  0.78071583  1  0  0.645671  0  3.903813  0  0  0.589801  0  4.212914  0  0  0.624036  0  4.203634  0  0  0.221211  0.566533  0  4.218411  0
C  C34  1  0.18927384  0.20285076  0.21500588  1  0  0.002187  0  3.769148  0  0  -0.002465  0  4.03589  0  0  -0.004497  0  4.055365  0  0  0.09039  -0.000822  0  4.022476  0
C  C35  1  0.81072627  0.20285177  0.28499384  1  0  0.002162  0  3.769301  0  0  -0.002492  0  4.036015  0  0  -0.004522  0  4.055492  0  0  0.090406  -0.000845  0  4.022593  0
C  C36  1  0.81072719  0.79714879  0.78499386  1  0  0.002135  0  3.769254  0  0  -0.002479  0  4.036008  0  0  -0.004508  0  4.055484  0  0  0.090399  -0.000832  0  4.022581  0
C  C37  1  0.18927350  0.79714890  0.71500576  1  0  0.002152  0  3.769276  0  0  -0.002467  0  4.036017  0  0  -0.004498  0  4.055493  0  0  0.090403  -0.000822  0  4.022592  0
C  C38  1  0.17348498  0.35806909  0.20211665  1  0  0.007771  0  3.663833  0  0  -0.006995  0  3.921882  0  0  -0.008726  0  3.940466  0  0  0.096793  -0.006072  0  3.909648  0
C  C39  1  0.82651506  0.35807008  0.29788428  1  0  0.007702  0  3.663915  0  0  -0.007054  0  3.921977  0  0  -0.008793  0  3.940565  0  0  0.096759  -0.006131  0  3.909746  0
C  C40  1  0.82651605  0.64193046  0.79788498  1  0  0.007751  0  3.663814  0  0  -0.007071  0  3.921934  0  0  -0.008812  0  3.940527  0  0  0.09677  -0.006144  0  3.909698  0
C  C41  1  0.17348471  0.64193058  0.70211532  1  0  0.007757  0  3.663872  0  0  -0.007057  0  3.921974  0  0  -0.008795  0  3.94056  0  0  0.09677  -0.006131  0  3.909738  0
C  C42  1  0.26497003  0.48819952  0.24704118  1  0  0.655424  0  3.883235  0  0  0.60137  0  4.191733  0  0  0.636114  0  4.180526  0  0  0.235403  0.577922  0  4.198703  0
C  C43  1  0.73502492  0.48819053  0.25295850  1  0  0.655364  0  3.882904  0  0  0.601304  0  4.191418  0  0  0.636051  0  4.180212  0  0  0.23538  0.577847  0  4.198395  0
C  C44  1  0.73502471  0.51181119  0.75295912  1  0  0.655409  0  3.882908  0  0  0.601385  0  4.191405  0  0  0.636132  0  4.180202  0  0  0.235432  0.577924  0  4.198388  0
C  C45  1  0.26497485  0.51180790  0.74703984  1  0  0.655383  0  3.882903  0  0  0.60137  0  4.191365  0  0  0.636118  0  4.180158  0  0  0.235437  0.577908  0  4.198347  0
C  C46  1  0.97675081  0.23890838  0.10803250  1  0  0.327109  0  3.724206  0  0  0.296168  0  3.994787  0  0  0.307881  0  4.00827  0  0  0.228864  0.288216  0  3.985047  0
C  C47  1  0.02325054  0.23890835  0.39196672  1  0  0.327002  0  3.724273  0  0  0.296127  0  3.994766  0  0  0.307841  0  4.00825  0  0  0.228854  0.288175  0  3.985028  0
C  C48  1  0.02325147  0.76109116  0.89196739  1  0  0.327041  0  3.724239  0  0  0.296188  0  3.994688  0  0  0.307901  0  4.00817  0  0  0.228861  0.288229  0  3.984952  0
C  C49  1  0.97675049  0.76109008  0.60803239  1  0  0.326926  0  3.724424  0  0  0.296089  0  3.994855  0  0  0.307802  0  4.008338  0  0  0.228811  0.288131  0  3.985117  0
C  C50  1  0.83317486  0.20868176  0.03764669  1  0  0.072128  0  3.75186  0  0  0.080874  0  3.991803  0  0  0.086539  0  4.009413  0  0  0.031105  0.076866  0  3.98024  0
C  C51  1  0.16682525  0.20868274  0.46235303  1  0  0.072138  0  3.751875  0  0  0.080877  0  3.991782  0  0  0.086541  0  4.009393  0  0  0.03112  0.076868  0  3.980219  0
C  C52  1  0.16682617  0.79131779  0.96235305  1  0  0.072075  0  3.751901  0  0  0.08083  0  3.991789  0  0  0.086493  0  4.0094  0  0  0.031107  0.076827  0  3.980223  0
C  C53  1  0.83317452  0.79131681  0.53764657  1  0  0.072162  0  3.751873  0  0  0.080906  0  3.991769  0  0  0.086571  0  4.009379  0  0  0.031127  0.076901  0  3.980202  0
C  C54  1  0.79930308  0.05944515  0.01258308  1  0  -0.1314  0  3.677585  0  0  -0.15372  0  3.934675  0  0  -0.161408  0  3.953619  0  0  -0.064221  -0.148248  0  3.923114  0
C  C55  1  0.20069708  0.05944610  0.48741670  1  0  -0.131388  0  3.677607  0  0  -0.153678  0  3.934712  0  0  -0.161365  0  3.953656  0  0  -0.064213  -0.148207  0  3.923149  0
C  C56  1  0.20069669  0.94055440  0.98741652  1  0  -0.131345  0  3.677487  0  0  -0.153678  0  3.934643  0  0  -0.161365  0  3.953587  0  0  -0.064204  -0.148206  0  3.923082  0
C  C57  1  0.79930395  0.94055345  0.51258305  1  0  -0.131415  0  3.677609  0  0  -0.153713  0  3.934656  0  0  -0.1614  0  3.953597  0  0  -0.064222  -0.14824  0  3.923092  0
C  C58  1  0.66281911  0.02659559  0.94712848  1  0  0.147251  0  3.611254  0  0  0.10332  0  3.87345  0  0  0.112677  0  3.886478  0  0  0.068217  0.097261  0  3.8644  0
C  C59  1  0.33718066  0.02659582  0.55287128  1  0  0.147332  0  3.611221  0  0  0.103361  0  3.873433  0  0  0.112719  0  3.886464  0  0  0.06823  0.097302  0  3.864382  0
C  C60  1  0.33718066  0.97340507  0.05287112  1  0  0.14733  0  3.611173  0  0  0.103378  0  3.87339  0  0  0.112737  0  3.886417  0  0  0.068226  0.097317  0  3.864346  0
C  C61  1  0.66282037  0.97340484  0.44712847  1  0  0.147353  0  3.611155  0  0  0.103387  0  3.873393  0  0  0.112745  0  3.88642  0  0  0.068228  0.097327  0  3.864347  0
C  C62  1  0.59008030  0.28158040  0.92962907  1  0  0.167505  0  3.574318  0  0  0.126323  0  3.829021  0  0  0.136436  0  3.840679  0  0  0.07889  0.119638  0  3.821035  0
C  C63  1  0.40991936  0.28158171  0.57037060  1  0  0.167389  0  3.574423  0  0  0.12617  0  3.829129  0  0  0.136284  0  3.840787  0  0  0.07882  0.119484  0  3.821145  0
C  C64  1  0.40991947  0.71841915  0.07037116  1  0  0.167521  0  3.574334  0  0  0.126295  0  3.829048  0  0  0.136408  0  3.840706  0  0  0.078874  0.119607  0  3.821068  0
C  C65  1  0.59008041  0.71841784  0.42962900  1  0  0.167445  0  3.574487  0  0  0.126226  0  3.829222  0  0  0.13634  0  3.84088  0  0  0.078846  0.119537  0  3.821243  0
C  C66  1  0.72590659  0.32092918  0.99479116  1  0  -0.121818  0  3.628784  0  0  -0.144758  0  3.881744  0  0  -0.151784  0  3.898586  0  0  -0.067179  -0.139667  0  3.871325  0
C  C67  1  0.27409431  0.32092947  0.50520864  1  0  -0.121744  0  3.628773  0  0  -0.144675  0  3.881744  0  0  -0.1517  0  3.898586  0  0  -0.067154  -0.139585  0  3.871326  0
C  C68  1  0.27409444  0.67907149  0.00520859  1  0  -0.121793  0  3.628788  0  0  -0.144715  0  3.881734  0  0  -0.151741  0  3.898575  0  0  -0.067152  -0.139624  0  3.871316  0
C  C69  1  0.72590546  0.67906896  0.49479096  1  0  -0.121735  0  3.628821  0  0  -0.144717  0  3.881787  0  0  -0.151743  0  3.898628  0  0  -0.067183  -0.139627  0  3.871371  0
N  N70  1  0.06607856  0.13136289  0.15673504  1  0  -0.432899  0  3.037723  0  0  -0.400766  0  3.312978  0  0  -0.414401  0  3.329834  0  0  -0.330364  -0.390804  0  3.300977  0
N  N71  1  0.93392158  0.13136270  0.34326408  1  0  -0.432821  0  3.037669  0  0  -0.400728  0  3.312934  0  0  -0.414362  0  3.329787  0  0  -0.330362  -0.390769  0  3.300931  0
N  N72  1  0.93392247  0.86863778  0.84326471  1  0  -0.432828  0  3.037639  0  0  -0.400739  0  3.312887  0  0  -0.414371  0  3.329734  0  0  -0.330354  -0.39078  0  3.300883  0
N  N73  1  0.06607819  0.86863685  0.65673489  1  0  -0.432851  0  3.037744  0  0  -0.400758  0  3.312961  0  0  -0.414393  0  3.329816  0  0  -0.330359  -0.390797  0  3.300956  0
N  N74  1  0.03836343  0.37680800  0.13445074  1  0  -0.303474  0  3.390753  0  0  -0.244695  0  3.615629  0  0  -0.260819  0  3.631479  0  0  -0.345519  -0.233768  0  3.604853  0
N  N75  1  0.96163660  0.37680779  0.36554892  1  0  -0.303389  0  3.390719  0  0  -0.244645  0  3.61559  0  0  -0.260769  0  3.631443  0  0  -0.345503  -0.233716  0  3.604808  0
N  N76  1  0.96163885  0.62319154  0.86554978  1  0  -0.303408  0  3.390756  0  0  -0.244643  0  3.615625  0  0  -0.260765  0  3.631478  0  0  -0.345519  -0.233714  0  3.604835  0
N  N77  1  0.03836192  0.62319176  0.63445117  1  0  -0.303317  0  3.390808  0  0  -0.244571  0  3.615665  0  0  -0.260694  0  3.631518  0  0  -0.345474  -0.233642  0  3.604875  0
N  N78  1  0.56200571  0.13684960  0.90753798  1  0  -0.205233  0  3.443793  0  0  -0.132498  0  3.669209  0  0  -0.147568  0  3.682751  0  0  -0.328732  -0.122648  0  3.66029  0
N  N79  1  0.43799401  0.13685088  0.59246174  1  0  -0.205269  0  3.443807  0  0  -0.132472  0  3.669182  0  0  -0.147543  0  3.682726  0  0  -0.328729  -0.122623  0  3.660263  0
N  N80  1  0.43799406  0.86314995  0.09246225  1  0  -0.205326  0  3.443824  0  0  -0.132526  0  3.669198  0  0  -0.147596  0  3.682741  0  0  -0.328744  -0.122679  0  3.660286  0
N  N81  1  0.56200576  0.86314867  0.40753787  1  0  -0.205302  0  3.443849  0  0  -0.132538  0  3.669265  0  0  -0.14761  0  3.682812  0  0  -0.328737  -0.122691  0  3.660353  0
Cl  Cl82  1  0.13987681  0.68343086  0.42925890  1  0  -0.70065  0  0.692729  0  0  -0.649928  0  0.905751  0  0  -0.665062  0  0.891039  0  0  -0.369094  -0.637691  0  0.917308  0
Cl  Cl83  1  0.86012057  0.68343095  0.07074036  1  0  -0.700655  0  0.692724  0  0  -0.649942  0  0.905759  0  0  -0.665077  0  0.891048  0  0  -0.369097  -0.637703  0  0.917315  0
Cl  Cl84  1  0.86012170  0.31656869  0.57074056  1  0  -0.700631  0  0.692718  0  0  -0.649938  0  0.905759  0  0  -0.665073  0  0.891046  0  0  -0.3691  -0.637703  0  0.917314  0
Cl  Cl85  1  0.13987794  0.31656860  0.92925910  1  0  -0.700655  0  0.692737  0  0  -0.649935  0  0.905759  0  0  -0.665072  0  0.891046  0  0  -0.369096  -0.637698  0  0.917314  0
O  O86  1  0.30082663  0.97708464  0.28229944  1  0  -0.63549  0  1.987921  0  0  -0.580735  0  2.227161  0  0  -0.604925  0  2.216908  0  0  -0.349508  -0.563572  0  2.233299  0
O  O87  1  0.69917314  0.97708462  0.21770063  1  0  -0.635543  0  1.987805  0  0  -0.580805  0  2.227036  0  0  -0.604994  0  2.216779  0  0  -0.349545  -0.563642  0  2.233176  0
O  O88  1  0.69917189  0.02291714  0.71770065  1  0  -0.635591  0  1.987767  0  0  -0.580815  0  2.227035  0  0  -0.605008  0  2.216782  0  0  -0.34953  -0.563654  0  2.233173  0
O  O89  1  0.30082914  0.02291716  0.78229862  1  0  -0.635558  0  1.987828  0  0  -0.580787  0  2.227077  0  0  -0.604978  0  2.216825  0  0  -0.349516  -0.563625  0  2.233214  0
O  O90  1  0.42510297  0.19179602  0.33360698  1  0  -0.588401  0  2.046622  0  0  -0.536258  0  2.273954  0  0  -0.561914  0  2.26507  0  0  -0.305583  -0.518182  0  2.278547  0
O  O91  1  0.57489839  0.19179609  0.16639288  1  0  -0.588354  0  2.04657  0  0  -0.536192  0  2.27397  0  0  -0.56185  0  2.265085  0  0  -0.305556  -0.518118  0  2.278551  0
O  O92  1  0.57489931  0.80820352  0.66639290  1  0  -0.588386  0  2.046609  0  0  -0.53618  0  2.274042  0  0  -0.561835  0  2.265157  0  0  -0.305547  -0.518108  0  2.278623  0
O  O93  1  0.42510138  0.80820346  0.83360672  1  0  -0.588371  0  2.046567  0  0  -0.536199  0  2.274003  0  0  -0.561856  0  2.265118  0  0  -0.305572  -0.518127  0  2.278587  0
O  O94  1  0.38777652  0.46067226  0.31368375  1  0  -0.539943  0  2.120736  0  0  -0.485503  0  2.340627  0  0  -0.509624  0  2.32469  0  0  -0.309488  -0.468468  0  2.349338  0
O  O95  1  0.61222347  0.46067453  0.18631777  1  0  -0.53989  0  2.120889  0  0  -0.485389  0  2.340849  0  0  -0.509507  0  2.324909  0  0  -0.309414  -0.468355  0  2.349548  0
O  O96  1  0.61222450  0.53932617  0.68631851  1  0  -0.539935  0  2.120985  0  0  -0.485461  0  2.34095  0  0  -0.50958  0  2.325014  0  0  -0.309468  -0.468416  0  2.349627  0
O  O97  1  0.38777504  0.53932725  0.81368232  1  0  -0.539897  0  2.120769  0  0  -0.48542  0  2.340712  0  0  -0.509539  0  2.324775  0  0  -0.309471  -0.46839  0  2.349421  0
O  O98  1  0.22271316  0.61677819  0.22212953  1  0  -0.612157  0  1.984269  0  0  -0.564076  0  2.224807  0  0  -0.586257  0  2.215114  0  0  -0.346436  -0.549265  0  2.230983  0
O  O99  1  0.77728928  0.61678480  0.27787411  1  0  -0.612128  0  1.983694  0  0  -0.564032  0  2.224219  0  0  -0.586218  0  2.214531  0  0  -0.346435  -0.549215  0  2.230395  0
O  O100  1  0.77729038  0.38321577  0.77787491  1  0  -0.61214  0  1.98367  0  0  -0.564048  0  2.224181  0  0  -0.586234  0  2.214494  0  0  -0.346428  -0.549231  0  2.230357  0
O  O101  1  0.22271049  0.38321810  0.72212738  1  0  -0.612148  0  1.983878  0  0  -0.56407  0  2.224388  0  0  -0.586255  0  2.214698  0  0  -0.346451  -0.549254  0  2.230566  0
