# generated using pymatgen
data_LiBH4C4(NF2)2
_symmetry_space_group_name_H-M   'P 1'
_cell_length_a   4.95831648
_cell_length_b   9.08808123
_cell_length_c   15.65134896
_cell_angle_alpha   90.00002049
_cell_angle_beta   90.00010031
_cell_angle_gamma   89.99998249
_symmetry_Int_Tables_number   1
_chemical_formula_structural   LiBH4C4(NF2)2
_chemical_formula_sum   'Li4 B4 H16 C16 N8 F16'
_cell_volume   705.27455869
_cell_formula_units_Z   4
loop_
 _symmetry_equiv_pos_site_id
 _symmetry_equiv_pos_as_xyz
  1  'x, y, z'
loop_
 _atom_site_type_symbol
 _atom_site_label
 _atom_site_symmetry_multiplicity
 _atom_site_fract_x
 _atom_site_fract_y
 _atom_site_fract_z
 _atom_site_occupancy
 _atom_site_hle17_bader_spin_density
 _atom_site_hle17_ddec_charge
 _atom_site_hle17_ddec_spin_density
 _atom_site_hle17_ddec_sum_bond_order
 _atom_site_hle17_magmom
 _atom_site_hse06_10hf_bader_spin_density
 _atom_site_hse06_10hf_ddec_charge
 _atom_site_hse06_10hf_ddec_spin_density
 _atom_site_hse06_10hf_ddec_sum_bond_order
 _atom_site_hse06_10hf_magmom
 _atom_site_hse06_bader_spin_density
 _atom_site_hse06_ddec_charge
 _atom_site_hse06_ddec_spin_density
 _atom_site_hse06_ddec_sum_bond_order
 _atom_site_hse06_magmom
 _atom_site_pbe_bader_spin_density
 _atom_site_pbe_cm5_charge
 _atom_site_pbe_ddec_charge
 _atom_site_pbe_ddec_spin_density
 _atom_site_pbe_ddec_sum_bond_order
 _atom_site_pbe_magmom
Li  Li0  1  0.47195391  0.58552417  0.55811119  1  0  0.879854  0  0.33304  0  0  0.827478  0  0.453975  0  0  0.838447  0  0.43482  0  0  0.51344  0.819463  0  0.467844  0
Li  Li1  1  0.97195385  0.91447582  0.44188879  1  0  0.879853  0  0.333044  0  0  0.827476  0  0.453981  0  0  0.838445  0  0.434825  0  0  0.513448  0.81946  0  0.467851  0
Li  Li2  1  0.52804673  0.08552435  0.94188894  1  0  0.879862  0  0.333027  0  0  0.827479  0  0.453971  0  0  0.838447  0  0.434817  0  0  0.513449  0.819461  0  0.467844  0
Li  Li3  1  0.02804585  0.41447584  0.05811134  1  0  0.879857  0  0.333035  0  0  0.827472  0  0.453984  0  0  0.838442  0  0.434828  0  0  0.513451  0.819457  0  0.467855  0
B  B4  1  0.02937592  0.56595128  0.43083897  1  0  1.268232  0  2.796945  0  0  1.097401  0  3.185098  0  0  1.136615  0  3.136388  0  0  0.053908  1.069633  0  3.219606  0
B  B5  1  0.52937656  0.93404878  0.56916077  1  0  1.268196  0  2.796983  0  0  1.097358  0  3.185166  0  0  1.136568  0  3.136465  0  0  0.053916  1.069504  0  3.219829  0
B  B6  1  0.97062599  0.06595006  0.06916109  1  0  1.26818  0  2.797012  0  0  1.09734  0  3.185194  0  0  1.136548  0  3.136495  0  0  0.053901  1.069574  0  3.219695  0
B  B7  1  0.47062187  0.43405006  0.93083943  1  0  1.268236  0  2.796941  0  0  1.097409  0  3.185074  0  0  1.13662  0  3.136371  0  0  0.053919  1.069546  0  3.219756  0
H  H8  1  0.66118400  0.65478526  0.75980057  1  0  0.141253  0  0.921122  0  0  0.152274  0  0.982048  0  0  0.154226  0  0.981401  0  0  0.125646  0.150821  0  0.982666  0
H  H9  1  0.16118417  0.84521368  0.24019860  1  0  0.141262  0  0.921117  0  0  0.152287  0  0.982031  0  0  0.15424  0  0.981383  0  0  0.125652  0.150864  0  0.982608  0
H  H10  1  0.33881660  0.15478645  0.74019893  1  0  0.141264  0  0.921115  0  0  0.152268  0  0.982052  0  0  0.154221  0  0.981403  0  0  0.12564  0.150815  0  0.982668  0
H  H11  1  0.83881557  0.34521479  0.25980088  1  0  0.141261  0  0.921116  0  0  0.152286  0  0.982033  0  0  0.154238  0  0.981384  0  0  0.12565  0.150863  0  0.98261  0
H  H12  1  0.76693754  0.83898034  0.74447543  1  0  0.137049  0  0.926195  0  0  0.147524  0  0.985983  0  0  0.149636  0  0.984969  0  0  0.121571  0.145955  0  0.98676  0
H  H13  1  0.26693992  0.66101968  0.25552444  1  0  0.137052  0  0.926197  0  0  0.147526  0  0.985988  0  0  0.149637  0  0.984974  0  0  0.121573  0.145989  0  0.986724  0
H  H14  1  0.23306094  0.33898046  0.75552475  1  0  0.137044  0  0.926219  0  0  0.147521  0  0.986  0  0  0.14963  0  0.984989  0  0  0.12157  0.145951  0  0.986778  0
H  H15  1  0.73306195  0.16101970  0.24447499  1  0  0.137054  0  0.92619  0  0  0.147531  0  0.985976  0  0  0.14964  0  0.984964  0  0  0.121576  0.145993  0  0.986713  0
H  H16  1  0.76773463  0.76556665  0.89860782  1  0  0.14207  0  0.909616  0  0  0.155127  0  0.965768  0  0  0.156934  0  0.965145  0  0  0.131627  0.153806  0  0.9664  0
H  H17  1  0.26773409  0.73443337  0.10139205  1  0  0.142072  0  0.909605  0  0  0.15513  0  0.965757  0  0  0.156935  0  0.965133  0  0  0.131628  0.153806  0  0.966394  0
H  H18  1  0.23226389  0.26556667  0.60139234  1  0  0.14208  0  0.909611  0  0  0.155143  0  0.965763  0  0  0.156949  0  0.965141  0  0  0.131631  0.153822  0  0.966396  0
H  H19  1  0.73226369  0.23443349  0.39860804  1  0  0.142073  0  0.90962  0  0  0.155133  0  0.96577  0  0  0.156938  0  0.965149  0  0  0.131626  0.153809  0  0.966408  0
H  H20  1  0.99275656  0.61810866  0.87819429  1  0  0.140291  0  0.931579  0  0  0.14895  0  0.994127  0  0  0.151887  0  0.99111  0  0  0.123176  0.146739  0  0.996437  0
H  H21  1  0.49275403  0.88189242  0.12180506  1  0  0.140279  0  0.931585  0  0  0.148935  0  0.994143  0  0  0.151872  0  0.991126  0  0  0.12317  0.146747  0  0.996414  0
H  H22  1  0.00724205  0.11810763  0.62180520  1  0  0.140275  0  0.931583  0  0  0.148939  0  0.994133  0  0  0.151878  0  0.991115  0  0  0.12317  0.146728  0  0.996443  0
H  H23  1  0.50724367  0.38189257  0.37819442  1  0  0.140273  0  0.931598  0  0  0.148932  0  0.994151  0  0  0.151868  0  0.991133  0  0  0.123167  0.146744  0  0.996422  0
C  C24  1  0.03971080  0.67859450  0.70471570  1  0  0.395895  0  3.645141  0  0  0.380606  0  3.926939  0  0  0.39264  0  3.942161  0  0  0.229765  0.372476  0  3.916573  0
C  C25  1  0.53970998  0.82140556  0.29528405  1  0  0.395856  0  3.645078  0  0  0.380561  0  3.926883  0  0  0.392597  0  3.942102  0  0  0.229753  0.372421  0  3.916541  0
C  C26  1  0.96029382  0.17859342  0.79528509  1  0  0.395826  0  3.645111  0  0  0.380533  0  3.926909  0  0  0.392566  0  3.942129  0  0  0.229817  0.372402  0  3.916539  0
C  C27  1  0.46028977  0.32140560  0.20471542  1  0  0.395873  0  3.645125  0  0  0.380577  0  3.926932  0  0  0.392611  0  3.942154  0  0  0.229774  0.372438  0  3.916592  0
C  C28  1  0.83558391  0.72909136  0.76418811  1  0  -0.17149  0  3.715694  0  0  -0.205311  0  3.952146  0  0  -0.207629  0  3.961155  0  0  -0.114338  -0.203572  0  3.945937  0
C  C29  1  0.33558410  0.77090865  0.23581180  1  0  -0.171499  0  3.715701  0  0  -0.205314  0  3.95215  0  0  -0.207632  0  3.961157  0  0  -0.114345  -0.203592  0  3.945946  0
C  C30  1  0.16441867  0.22909147  0.73581205  1  0  -0.171514  0  3.715699  0  0  -0.20531  0  3.952146  0  0  -0.207626  0  3.961149  0  0  -0.114373  -0.20357  0  3.945938  0
C  C31  1  0.66441569  0.27090870  0.26418830  1  0  -0.171485  0  3.715704  0  0  -0.205306  0  3.952161  0  0  -0.207622  0  3.96117  0  0  -0.114344  -0.203584  0  3.945957  0
C  C32  1  0.93454518  0.72901216  0.85755709  1  0  -0.174995  0  3.716908  0  0  -0.208495  0  3.955457  0  0  -0.21031  0  3.963024  0  0  -0.114159  -0.207209  0  3.950403  0
C  C33  1  0.43454485  0.77098893  0.14244287  1  0  -0.174997  0  3.716892  0  0  -0.208505  0  3.955455  0  0  -0.210317  0  3.963022  0  0  -0.114175  -0.207209  0  3.950385  0
C  C34  1  0.06545336  0.22901113  0.64244307  1  0  -0.175007  0  3.716858  0  0  -0.208535  0  3.955435  0  0  -0.210349  0  3.962999  0  0  -0.114163  -0.207249  0  3.950382  0
C  C35  1  0.56545494  0.27098906  0.35755722  1  0  -0.175019  0  3.716919  0  0  -0.208524  0  3.95547  0  0  -0.210335  0  3.963036  0  0  -0.114173  -0.207227  0  3.950399  0
C  C36  1  0.15971970  0.82717486  0.87192753  1  0  0.413937  0  3.6405  0  0  0.396167  0  3.92183  0  0  0.40869  0  3.937139  0  0  0.235806  0.387619  0  3.911719  0
C  C37  1  0.65972006  0.67282518  0.12807292  1  0  0.413926  0  3.640376  0  0  0.396157  0  3.921707  0  0  0.408679  0  3.937018  0  0  0.235814  0.387606  0  3.911609  0
C  C38  1  0.84028081  0.32717480  0.62807265  1  0  0.414038  0  3.640412  0  0  0.396281  0  3.92174  0  0  0.408804  0  3.93705  0  0  0.235849  0.387734  0  3.911631  0
C  C39  1  0.34027978  0.17282535  0.37192716  1  0  0.413995  0  3.640425  0  0  0.39623  0  3.92175  0  0  0.408751  0  3.937061  0  0  0.235851  0.387677  0  3.911651  0
N  N40  1  0.20464167  0.63685629  0.65788910  1  0  -0.502503  0  2.678947  0  0  -0.483355  0  2.932244  0  0  -0.49471  0  2.940152  0  0  -0.350095  -0.475772  0  2.927123  0
N  N41  1  0.70464512  0.86314374  0.34211137  1  0  -0.502467  0  2.67886  0  0  -0.483317  0  2.932156  0  0  -0.494673  0  2.940064  0  0  -0.350084  -0.47573  0  2.927036  0
N  N42  1  0.79535895  0.13685636  0.84211167  1  0  -0.502439  0  2.678895  0  0  -0.483291  0  2.932188  0  0  -0.494646  0  2.940098  0  0  -0.350126  -0.475705  0  2.927066  0
N  N43  1  0.29535663  0.36314489  0.15788875  1  0  -0.502484  0  2.678909  0  0  -0.483338  0  2.932214  0  0  -0.494693  0  2.940123  0  0  -0.350098  -0.475751  0  2.927095  0
N  N44  1  0.33813107  0.90760657  0.88371060  1  0  -0.514466  0  2.662223  0  0  -0.489582  0  2.908629  0  0  -0.502405  0  2.917817  0  0  -0.364331  -0.48116  0  2.902928  0
N  N45  1  0.83813343  0.59239344  0.11628931  1  0  -0.514449  0  2.662113  0  0  -0.489559  0  2.908518  0  0  -0.502382  0  2.917707  0  0  -0.364327  -0.481152  0  2.902841  0
N  N46  1  0.66186737  0.40760653  0.61628960  1  0  -0.51454  0  2.662193  0  0  -0.489662  0  2.908599  0  0  -0.502484  0  2.917786  0  0  -0.364354  -0.48124  0  2.902899  0
N  N47  1  0.16186848  0.09239364  0.38371011  1  0  -0.514501  0  2.66218  0  0  -0.489619  0  2.908584  0  0  -0.502442  0  2.917774  0  0  -0.364362  -0.481211  0  2.902908  0
F  F48  1  0.19157632  0.48292826  0.48911322  1  0  -0.551695  0  1.036721  0  0  -0.491836  0  1.222699  0  0  -0.505573  0  1.20036  0  0  -0.166386  -0.481846  0  1.238185  0
F  F49  1  0.69157889  0.01706971  0.51088779  1  0  -0.551684  0  1.036733  0  0  -0.491827  0  1.222717  0  0  -0.505563  0  1.200381  0  0  -0.166402  -0.481831  0  1.238246  0
F  F50  1  0.80842536  0.98292799  0.01088693  1  0  -0.551699  0  1.036744  0  0  -0.491834  0  1.222716  0  0  -0.505569  0  1.200381  0  0  -0.166393  -0.481843  0  1.238202  0
F  F51  1  0.30841978  0.51707092  0.98911233  1  0  -0.551692  0  1.036749  0  0  -0.491837  0  1.222725  0  0  -0.505573  0  1.200387  0  0  -0.166397  -0.481837  0  1.238257  0
F  F52  1  0.75596132  0.55957364  0.45556931  1  0  -0.536448  0  1.059409  0  0  -0.47976  0  1.249247  0  0  -0.493144  0  1.22642  0  0  -0.136653  -0.470118  0  1.265048  0
F  F53  1  0.25596312  0.94042858  0.54443056  1  0  -0.536447  0  1.059418  0  0  -0.479756  0  1.249258  0  0  -0.493139  0  1.226432  0  0  -0.136663  -0.470105  0  1.265104  0
F  F54  1  0.24403657  0.05957252  0.04443075  1  0  -0.536425  0  1.059431  0  0  -0.479731  0  1.249268  0  0  -0.493114  0  1.226443  0  0  -0.136642  -0.470091  0  1.265068  0
F  F55  1  0.74403530  0.44042873  0.95557028  1  0  -0.536449  0  1.059403  0  0  -0.479757  0  1.249231  0  0  -0.493143  0  1.226407  0  0  -0.136659  -0.470102  0  1.265078  0
F  F56  1  0.12376075  0.71388019  0.43344326  1  0  -0.557399  0  1.057067  0  0  -0.500587  0  1.250203  0  0  -0.513088  0  1.226012  0  0  -0.155078  -0.491506  0  1.266936  0
F  F57  1  0.62375943  0.78611986  0.56655653  1  0  -0.557406  0  1.057071  0  0  -0.500595  0  1.250216  0  0  -0.513092  0  1.226021  0  0  -0.15509  -0.491506  0  1.266987  0
F  F58  1  0.87624109  0.21387898  0.06655683  1  0  -0.557394  0  1.057061  0  0  -0.500575  0  1.250194  0  0  -0.513075  0  1.226003  0  0  -0.155075  -0.491492  0  1.266924  0
F  F59  1  0.37624109  0.28612006  0.93344428  1  0  -0.557424  0  1.057037  0  0  -0.500602  0  1.250156  0  0  -0.513098  0  1.225959  0  0  -0.155096  -0.491515  0  1.266939  0
F  F60  1  0.06080573  0.50801933  0.34802886  1  0  -0.509584  0  1.025499  0  0  -0.446595  0  1.199022  0  0  -0.462211  0  1.179954  0  0  -0.133896  -0.435351  0  1.212154  0
F  F61  1  0.56080881  0.99197962  0.65197154  1  0  -0.509546  0  1.025473  0  0  -0.446558  0  1.199003  0  0  -0.462175  0  1.179944  0  0  -0.133884  -0.435245  0  1.212138  0
F  F62  1  0.93919218  0.00801926  0.15197183  1  0  -0.509559  0  1.025504  0  0  -0.446576  0  1.199035  0  0  -0.462189  0  1.179973  0  0  -0.133902  -0.435333  0  1.212167  0
F  F63  1  0.43919362  0.49197866  0.84802867  1  0  -0.509564  0  1.025485  0  0  -0.446583  0  1.199009  0  0  -0.462196  0  1.179946  0  0  -0.133877  -0.435268  0  1.212152  0
