# generated using pymatgen
data_Al4H41C66Br11(N4O15)2
_symmetry_space_group_name_H-M   'P 1'
_cell_length_a   6.59451568
_cell_length_b   22.53124785
_cell_length_c   23.23755784
_cell_angle_alpha   68.10401072
_cell_angle_beta   89.26311220
_cell_angle_gamma   89.00481659
_symmetry_Int_Tables_number   1
_chemical_formula_structural   Al4H41C66Br11(N4O15)2
_chemical_formula_sum   'Al4 H41 C66 Br11 N8 O30'
_cell_volume   3203.06974571
_cell_formula_units_Z   1
loop_
 _symmetry_equiv_pos_site_id
 _symmetry_equiv_pos_as_xyz
  1  'x, y, z'
loop_
 _atom_site_type_symbol
 _atom_site_label
 _atom_site_symmetry_multiplicity
 _atom_site_fract_x
 _atom_site_fract_y
 _atom_site_fract_z
 _atom_site_occupancy
 _atom_site_pbe_bader_charge
 _atom_site_pbe_bader_spin_density
 _atom_site_pbe_cm5_charge
 _atom_site_pbe_ddec_charge
 _atom_site_pbe_ddec_spin_density
 _atom_site_pbe_ddec_sum_bond_order
 _atom_site_pbe_magmom
Al  Al0  1  0.16749375  0.50263848  0.49557690  1  2.499623  0  0.394662  1.64063  0  2.567804  0
Al  Al1  1  0.66596228  0.50151803  0.49634317  1  2.50265  0  0.397274  1.641928  0  2.573849  0
Al  Al2  1  0.58990030  0.00247424  0.99596838  1  2.502359  0  0.389621  1.65603  0  2.555928  0
Al  Al3  1  0.09092475  0.00582319  0.99736978  1  2.500264  0  0.394567  1.650188  0  2.553105  0
H  H4  1  0.11227877  0.68795201  0.18725335  1  0.111582  0  0.09407  0.109926  0  1.053424  0
H  H5  1  0.14914294  0.77713600  0.87689552  1  0.093112  0  0.112924  0.130755  0  1.008462  0
H  H6  1  0.64458387  0.36579491  0.27861711  1  0.165539  0  0.109893  0.122735  0  1.019329  0
H  H7  1  0.68585158  0.12272166  0.20214915  1  0.095235  0  0.104767  0.114378  0  0.996338  0
H  H8  1  0.64474509  0.07044573  0.12539472  1  0.130501  0  0.103613  0.112663  0  1.029652  0
H  H9  1  0.68284871  0.40269740  0.68859594  1  0.115438  0  0.106935  0.126889  0  1.00429  0
H  H10  1  0.19667333  0.30858009  0.63679772  1  0.111681  0  0.111913  0.121173  0  1.003235  0
H  H11  1  0.41816745  0.81423836  0.91113801  1  0.072658  0  0.09896  0.10556  0  1.006904  0
H  H12  1  0.27923429  0.75427924  0.97202858  1  0.051462  0  0.102476  0.105812  0  0.977126  0
H  H13  1  0.43283293  0.81049016  0.98936114  1  0.080786  0  0.111215  0.125061  0  0.971421  0
H  H14  1  0.79673509  0.81121815  0.57968557  1  0.072517  0  0.094278  0.090815  0  1.018162  0
H  H15  1  0.52497893  0.81820116  0.58104722  1  0.0783  0  0.108955  0.118765  0  0.967166  0
H  H16  1  0.64310184  0.77739548  0.53585325  1  0.066901  0  0.098279  0.098654  0  1.023662  0
H  H17  1  0.43131544  0.59501971  0.57751940  1  0.121901  0  0.097712  0.110186  0  1.0356  0
H  H18  1  0.35400755  0.66964487  0.51995250  1  0.065374  0  0.105109  0.11498  0  0.970109  0
H  H19  1  0.37244983  0.66266077  0.59938946  1  0.067491  0  0.089293  0.089403  0  1.027729  0
H  H20  1  0.23313506  0.20295064  0.49645697  1  0.037608  0  0.091242  0.085177  0  1.034832  0
H  H21  1  0.31995918  0.16471545  0.44422172  1  0.072764  0  0.092204  0.086369  0  1.026051  0
H  H22  1  0.05851613  0.16049119  0.46736684  1  0.052408  0  0.107748  0.116435  0  0.966044  0
H  H23  1  0.92994391  0.38901471  0.44082650  1  0.086388  0  0.096148  0.110818  0  1.043795  0
H  H24  1  0.88329644  0.31865072  0.50806706  1  0.02325  0  0.102141  0.110364  0  0.970156  0
H  H25  1  0.89324456  0.31297226  0.43304689  1  0.06963  0  0.091891  0.093881  0  1.025138  0
H  H26  1  0.96053141  0.02494195  0.79818453  1  0.068601  0  0.096556  0.102327  0  1.027497  0
H  H27  1  0.02106089  0.08003091  0.72159047  1  0.071512  0  0.094478  0.091535  0  1.013021  0
H  H28  1  0.88052430  0.10712165  0.77416516  1  0.08793  0  0.104999  0.11407  0  0.979115  0
H  H29  1  0.13138033  0.18838419  0.59950491  1  0.063215  0  0.105771  0.112296  0  0.989334  0
H  H30  1  0.30185623  0.13522097  0.65607798  1  0.027324  0  0.095217  0.091337  0  0.996964  0
H  H31  1  0.35857522  0.21880899  0.61916616  1  0.051957  0  0.097528  0.097812  0  1.000609  0
H  H32  1  0.29652799  0.81894573  0.26454097  1  0.046746  0  0.091534  0.092176  0  1.010069  0
H  H33  1  0.28957889  0.80144641  0.34651482  1  0.078799  0  0.106163  0.11451  0  0.975018  0
H  H34  1  0.37376719  0.74092486  0.31836518  1  0.090698  0  0.093923  0.097231  0  1.004709  0
H  H35  1  0.84650244  0.78365301  0.38269288  1  0.073184  0  0.094231  0.09462  0  1.019076  0
H  H36  1  0.98485994  0.71022138  0.42357547  1  0.018826  0  0.092186  0.090174  0  0.99827  0
H  H37  1  0.75001939  0.72669464  0.45467596  1  0.117109  0  0.105118  0.118729  0  1.033654  0
H  H38  1  0.48061511  0.92019975  0.68043080  1  0.063976  0  0.106776  0.119472  0  0.965766  0
H  H39  1  0.75320965  0.91501204  0.68401407  1  0.077742  0  0.090771  0.088199  0  1.02994  0
H  H40  1  0.61649285  0.97047260  0.71049958  1  0.041487  0  0.081488  0.074181  0  1.043829  0
H  H41  1  0.41659812  0.58276653  0.44859575  1  0.637736  0  0.357438  0.438359  0  0.841915  0
H  H42  1  0.92365865  0.42181904  0.54211318  1  0.622666  0  0.356199  0.431921  0  0.849225  0
H  H43  1  0.33392414  0.93213370  0.98553109  1  0.627859  0  0.346339  0.426072  0  0.872752  0
H  H44  1  0.83165092  0.08845342  0.96273205  1  0.617097  0  0.345359  0.427503  0  0.86522  0
C  C45  1  0.41339163  0.43258463  0.43742125  1  1.609082  0  0.26491  0.658033  0  4.103994  0
C  C46  1  0.42148579  0.41615939  0.59668005  1  1.576852  0  0.267533  0.644102  0  4.098499  0
C  C47  1  0.91304511  0.56349709  0.56262187  1  1.624522  0  0.266807  0.658854  0  4.090024  0
C  C48  1  0.91104737  0.58775783  0.39549822  1  1.634885  0  0.273055  0.679618  0  4.089372  0
C  C49  1  0.83103183  0.86022590  0.15687293  1  0.111512  0  -0.016236  -0.103175  0  3.962879  0
C  C50  1  0.91237546  0.64187983  0.33342943  1  0.061709  0  -0.023258  -0.190206  0  3.960961  0
C  C51  1  0.02645180  0.69083000  0.22640326  1  0.062824  0  -0.107726  -0.200779  0  4.007862  0
C  C52  1  0.02216898  0.63920093  0.28169283  1  -0.132818  0  -0.01436  0.108039  0  3.988686  0
C  C53  1  0.80984311  0.69814859  0.32823690  1  0.507981  0  0.096082  0.219119  0  3.98144  0
C  C54  1  0.80613812  0.75259418  0.27114242  1  0.025836  0  -0.013412  -0.106074  0  3.957471  0
C  C55  1  0.92106375  0.74827934  0.21968950  1  0.008336  0  -0.009899  0.067763  0  4.01959  0
C  C56  1  0.92596247  0.80275547  0.16307926  1  -0.097314  0  -0.009077  0.036767  0  3.891805  0
C  C57  1  0.71642273  0.86303692  0.20804395  1  -0.110726  0  -0.01853  -0.011092  0  3.933648  0
C  C58  1  0.69624388  0.81035683  0.26300376  1  0.608112  0  0.076668  0.165099  0  4.053926  0
C  C59  1  0.72717701  0.90701621  0.84658561  1  -0.086394  0  -0.018115  -0.010308  0  3.955407  0
C  C60  1  0.73842999  0.86977106  0.80961697  1  0.55901  0  0.067303  0.139701  0  4.07252  0
C  C61  1  0.89163606  0.82281402  0.82208124  1  0.004199  0  -0.006335  -0.035678  0  4.022637  0
C  C62  1  0.03379391  0.81439800  0.86855017  1  0.01628  0  -0.103595  -0.243606  0  3.992839  0
C  C63  1  0.02918304  0.85390399  0.90274877  1  0.498989  0  0.092542  0.249055  0  4.03291  0
C  C64  1  0.87053853  0.90014478  0.89311993  1  0.071986  0  -0.024776  -0.183782  0  3.930768  0
C  C65  1  0.91598491  0.70606388  0.72533719  1  1.042818  0  0.247357  0.279049  0  3.990526  0
C  C66  1  0.90284247  0.78045289  0.78644613  1  0.947567  0  0.254274  0.284001  0  3.960612  0
C  C67  1  0.77497699  0.68213516  0.63894326  1  0.576626  0  0.084681  0.12864  0  4.038722  0
C  C68  1  0.77184460  0.64766979  0.59941044  1  0.542691  0  0.085803  0.145946  0  4.02047  0
C  C69  1  0.90477171  0.59498827  0.60966512  1  0.033382  0  -0.014056  -0.148832  0  3.912165  0
C  C70  1  0.03123718  0.57515167  0.66222951  1  -0.038277  0  -0.018682  0.03886  0  3.943463  0
C  C71  1  0.03914207  0.61088524  0.70036748  1  -0.04978  0  -0.019229  0.030607  0  3.954884  0
C  C72  1  0.91197241  0.66487119  0.68851913  1  0.064683  0  -0.013998  -0.109524  0  4.00595  0
C  C73  1  0.54394813  0.39904077  0.34994986  1  -0.115776  0  -0.015283  0.093876  0  3.977634  0
C  C74  1  0.54430179  0.35774128  0.31825362  1  0.048481  0  -0.092902  -0.163616  0  3.989985  0
C  C75  1  0.41682700  0.30433333  0.33697446  1  -0.039491  0  -0.007848  -0.053999  0  3.989686  0
C  C76  1  0.28332608  0.29428526  0.38759423  1  0.544545  0  0.086405  0.126432  0  4.005279  0
C  C77  1  0.28629638  0.33626645  0.42003151  1  0.548861  0  0.086103  0.146912  0  4.017323  0
C  C78  1  0.41695634  0.38901424  0.40167192  1  0.055593  0  -0.014717  -0.151521  0  3.922372  0
C  C79  1  0.41766411  0.19803230  0.23046516  1  0.977125  0  0.23975  0.251856  0  4.02893  0
C  C80  1  0.43198564  0.26133074  0.30252215  1  0.960311  0  0.248312  0.271672  0  3.963518  0
C  C81  1  0.54637867  0.12915270  0.17578666  1  0.02084  0  -0.086162  -0.104626  0  3.978047  0
C  C82  1  0.52386385  0.10010396  0.13312826  1  -0.06052  0  -0.087396  -0.085712  0  3.997902  0
C  C83  1  0.34589645  0.10823743  0.09852914  1  0.045529  0  -0.015791  -0.074388  0  3.938233  0
C  C84  1  0.19186262  0.14960270  0.10484397  1  -0.077878  0  -0.012616  0.051205  0  3.911943  0
C  C85  1  0.21300922  0.17794074  0.14904661  1  -0.030714  0  -0.020631  0.018306  0  3.929866  0
C  C86  1  0.38935857  0.16724134  0.18488564  1  0.048272  0  -0.005173  -0.001468  0  3.992918  0
C  C87  1  0.35283321  0.15089661  0.83802411  1  -0.008553  0  -0.020223  -0.157546  0  3.977529  0
C  C88  1  0.42719171  0.36300526  0.65833996  1  -0.02951  0  -0.020137  -0.027684  0  4.01928  0
C  C89  1  0.59127470  0.31363567  0.75799089  1  -0.070823  0  -0.013878  0.08328  0  3.917527  0
C  C90  1  0.57638330  0.36342082  0.70126877  1  0.011962  0  -0.099231  -0.160398  0  3.980229  0
C  C91  1  0.30581173  0.31033378  0.67084209  1  -0.017255  0  -0.082975  -0.136743  0  3.95169  0
C  C92  1  0.32878190  0.25664653  0.72672909  1  -0.01287  0  -0.008512  0.014046  0  4.005128  0
C  C93  1  0.46064181  0.25958953  0.77492437  1  0.055742  0  -0.014488  -0.012738  0  3.964845  0
C  C94  1  0.44992994  0.20659019  0.83275264  1  -0.009351  0  -0.012579  0.051799  0  3.914235  0
C  C95  1  0.25063900  0.14495327  0.78685691  1  0.545155  0  0.085019  0.140522  0  4.064721  0
C  C96  1  0.22941685  0.19873813  0.73291854  1  0.527479  0  0.065253  0.076704  0  4.043092  0
C  C97  1  0.34906020  0.09423000  0.89849612  1  1.644686  0  0.26177  0.66123  0  4.129448  0
C  C98  1  0.33282692  0.06954494  0.05844428  1  1.595986  0  0.264493  0.643077  0  4.112707  0
C  C99  1  0.83375754  0.91655147  0.09588444  1  1.628825  0  0.263746  0.650499  0  4.112609  0
C  C100  1  0.85900178  0.93922871  0.93321778  1  1.603238  0  0.264761  0.662958  0  4.095885  0
C  C101  1  0.33365318  0.80382926  0.95487484  1  0.370699  0  -0.135907  -0.176537  0  3.882781  0
C  C102  1  0.65310121  0.78776391  0.57827719  1  0.351498  0  -0.14003  -0.172296  0  3.888278  0
C  C103  1  0.43708016  0.64709380  0.56340873  1  0.312591  0  -0.142507  -0.167419  0  3.851749  0
C  C104  1  0.19383990  0.19033199  0.45662373  1  0.39132  0  -0.139137  -0.168403  0  3.917151  0
C  C105  1  0.95495782  0.33717269  0.46205161  1  0.386797  0  -0.146641  -0.173531  0  3.860626  0
C  C106  1  0.00046024  0.07442069  0.77029679  1  0.344083  0  -0.137378  -0.166435  0  3.880225  0
C  C107  1  0.23604741  0.18397388  0.63718854  1  0.397108  0  -0.137614  -0.174709  0  3.915651  0
C  C108  1  0.37128093  0.79253160  0.30912180  1  0.333063  0  -0.1386  -0.166084  0  3.896215  0
C  C109  1  0.83322113  0.73266970  0.41191542  1  0.350228  0  -0.143059  -0.172254  0  3.881174  0
C  C110  1  0.61413052  0.92325600  0.70671999  1  0.361733  0  -0.146895  -0.169435  0  3.915329  0
Br  Br111  1  0.05531608  0.79452000  0.09251155  1  -0.033075  0  0.060879  -0.020577  0  1.544573  0
Br  Br112  1  0.17851427  0.49659158  0.68574199  1  -0.012199  0  0.058603  -0.015313  0  1.596639  0
Br  Br113  1  0.23354002  0.59038124  0.76449933  1  0.007112  0  0.046012  -0.023374  0  1.486003  0
Br  Br114  1  0.71800500  0.47078751  0.31904451  1  -0.037139  0  0.035299  -0.055683  0  1.559491  0
Br  Br115  1  0.58589335  0.94012002  0.20417186  1  -0.010838  0  0.064436  -0.00513  0  1.544937  0
Br  Br116  1  0.96662677  0.17269031  0.05082474  1  -0.000848  0  0.062224  -0.004365  0  1.578059  0
Br  Br117  1  0.00647571  0.23141376  0.16211879  1  -0.005902  0  0.049417  -0.037391  0  1.571762  0
Br  Br118  1  0.53361481  0.21249810  0.90890521  1  -0.036054  0  0.047795  -0.025341  0  1.562585  0
Br  Br119  1  0.82095386  0.31801798  0.80538722  1  -0.042034  0  0.022103  -0.065876  0  1.475636  0
Br  Br120  1  0.17070250  0.56419944  0.28721895  1  -0.031343  0  0.046272  -0.023785  0  1.508145  0
Br  Br121  1  0.51029417  0.96791957  0.82990073  1  0.010878  0  0.085631  0.019484  0  1.62143  0
N  N122  1  0.93744279  0.80747650  0.72473748  1  -0.529339  0  -0.150969  -0.144539  0  3.190561  0
N  N123  1  0.94695568  0.76905916  0.69343887  1  -0.584488  0  -0.149444  -0.139066  0  3.198491  0
N  N124  1  0.88943126  0.67878178  0.78729153  1  -0.537189  0  -0.15444  -0.140193  0  3.205568  0
N  N125  1  0.88602613  0.71700153  0.81893670  1  -0.520461  0  -0.158085  -0.147743  0  3.155321  0
N  N126  1  0.35376457  0.20176462  0.32605584  1  -0.53918  0  -0.145721  -0.126707  0  3.206926  0
N  N127  1  0.34141980  0.17029104  0.28824061  1  -0.550178  0  -0.164224  -0.162936  0  3.201833  0
N  N128  1  0.54866708  0.24715335  0.21495044  1  -0.534302  0  -0.154923  -0.13963  0  3.216809  0
N  N129  1  0.55165036  0.28019133  0.25120078  1  -0.545845  0  -0.149023  -0.132189  0  3.198488  0
O  O130  1  0.59070743  0.44230472  0.57619310  1  -1.263892  0  -0.23212  -0.586429  0  2.361717  0
O  O131  1  0.24248985  0.45654105  0.44299892  1  -1.239193  0  -0.227801  -0.581317  0  2.389343  0
O  O132  1  0.08020821  0.57286147  0.42307990  1  -1.259884  0  -0.230441  -0.593897  0  2.358808  0
O  O133  1  0.25375740  0.43116176  0.56789589  1  -1.269141  0  -0.234921  -0.599076  0  2.355242  0
O  O134  1  0.08838002  0.54975812  0.54740323  1  -1.244838  0  -0.235074  -0.594337  0  2.393613  0
O  O135  1  0.58067361  0.44113304  0.45963734  1  -1.252352  0  -0.232268  -0.58927  0  2.360159  0
O  O136  1  0.41611095  0.54230100  0.48374714  1  -1.437914  0  -0.445183  -0.979772  0  2.192702  0
O  O137  1  0.74646112  0.55532440  0.54027725  1  -1.238635  0  -0.224038  -0.567782  0  2.378352  0
O  O138  1  0.74254863  0.56184023  0.41619184  1  -1.253266  0  -0.225887  -0.588622  0  2.36113  0
O  O139  1  0.91893898  0.46274485  0.50767650  1  -1.422945  0  -0.445929  -0.981294  0  2.217234  0
O  O140  1  0.16135933  0.04925269  0.05067615  1  -1.246477  0  -0.23057  -0.577606  0  2.389156  0
O  O141  1  0.51839156  0.06604617  0.91606739  1  -1.257153  0  -0.238376  -0.60603  0  2.389705  0
O  O142  1  0.68712087  0.94493489  0.95623083  1  -1.254394  0  -0.237897  -0.599636  0  2.372488  0
O  O143  1  0.50008568  0.05773885  0.03682820  1  -1.261614  0  -0.232882  -0.593588  0  2.402224  0
O  O144  1  0.66129277  0.93813670  0.07377321  1  -1.242548  0  -0.227402  -0.571596  0  2.381965  0
O  O145  1  0.17935254  0.08002384  0.92609208  1  -1.249462  0  -0.230322  -0.58137  0  2.334168  0
O  O146  1  0.33938210  0.96496839  0.00317885  1  -1.427292  0  -0.447793  -0.981642  0  2.190941  0
O  O147  1  0.00435594  0.93637317  0.07145382  1  -1.242736  0  -0.225126  -0.5678  0  2.369589  0
O  O148  1  0.02369997  0.96291035  0.94169793  1  -1.243169  0  -0.229863  -0.584241  0  2.37922  0
O  O149  1  0.83698548  0.04275611  0.98641183  1  -1.420338  0  -0.450064  -0.991907  0  2.227625  0
O  O150  1  0.16878229  0.84855576  0.94715319  1  -1.074338  0  -0.181034  -0.160519  0  2.628962  0
O  O151  1  0.63610520  0.72996798  0.63298749  1  -1.081237  0  -0.199543  -0.175053  0  2.561699  0
O  O152  1  0.64442700  0.66854130  0.54954692  1  -1.084752  0  -0.199441  -0.182468  0  2.599438  0
O  O153  1  0.14150671  0.24695939  0.40402492  1  -1.05967  0  -0.202041  -0.179791  0  2.580824  0
O  O154  1  0.17003682  0.32292394  0.47264528  1  -1.07747  0  -0.209085  -0.192539  0  2.539355  0
O  O155  1  0.18735567  0.08475763  0.79648134  1  -1.067776  0  -0.184615  -0.143003  0  2.603517  0
O  O156  1  0.11737653  0.19712091  0.68365397  1  -1.071472  0  -0.208503  -0.182689  0  2.552129  0
O  O157  1  0.57392638  0.81570909  0.30900859  1  -1.07345  0  -0.2093  -0.198838  0  2.615365  0
O  O158  1  0.71744139  0.69954272  0.38109466  1  -1.071914  0  -0.201072  -0.185388  0  2.540549  0
O  O159  1  0.59151414  0.87298995  0.76704842  1  -1.073727  0  -0.21624  -0.201277  0  2.565441  0
