# generated using pymatgen
data_Li3H5C9O7
_symmetry_space_group_name_H-M   'P 1'
_cell_length_a   7.35935931
_cell_length_b   8.00531619
_cell_length_c   9.42517575
_cell_angle_alpha   106.45270387
_cell_angle_beta   109.27887434
_cell_angle_gamma   104.32250138
_symmetry_Int_Tables_number   1
_chemical_formula_structural   Li3H5C9O7
_chemical_formula_sum   'Li6 H10 C18 O14'
_cell_volume   465.67411395
_cell_formula_units_Z   2
loop_
 _symmetry_equiv_pos_site_id
 _symmetry_equiv_pos_as_xyz
  1  'x, y, z'
loop_
 _atom_site_type_symbol
 _atom_site_label
 _atom_site_symmetry_multiplicity
 _atom_site_fract_x
 _atom_site_fract_y
 _atom_site_fract_z
 _atom_site_occupancy
 _atom_site_hle17_bader_spin_density
 _atom_site_hle17_ddec_charge
 _atom_site_hle17_ddec_spin_density
 _atom_site_hle17_ddec_sum_bond_order
 _atom_site_hle17_magmom
 _atom_site_hse06_10hf_bader_spin_density
 _atom_site_hse06_10hf_ddec_charge
 _atom_site_hse06_10hf_ddec_spin_density
 _atom_site_hse06_10hf_ddec_sum_bond_order
 _atom_site_hse06_10hf_magmom
 _atom_site_hse06_bader_spin_density
 _atom_site_hse06_ddec_charge
 _atom_site_hse06_ddec_spin_density
 _atom_site_hse06_ddec_sum_bond_order
 _atom_site_hse06_magmom
 _atom_site_pbe_bader_spin_density
 _atom_site_pbe_cm5_charge
 _atom_site_pbe_ddec_charge
 _atom_site_pbe_ddec_spin_density
 _atom_site_pbe_ddec_sum_bond_order
 _atom_site_pbe_magmom
Li  Li0  1  0.49993197  0.50130698  0.35916781  1  0  0.860953  0  0.392018  0  0  0.823788  0  0.492516  0  0  0.83351  0  0.475194  0  0  0.516665  0.816553  0  0.505384  0
Li  Li1  1  0.50006732  0.49869544  0.64083229  1  0  0.86095  0  0.39203  0  0  0.823784  0  0.492532  0  0  0.833506  0  0.475209  0  0  0.516662  0.816548  0  0.505401  0
Li  Li2  1  0.32468517  0.84059703  0.04357442  1  0  0.865432  0  0.368709  0  0  0.826623  0  0.469441  0  0  0.836436  0  0.45248  0  0  0.505544  0.819304  0  0.481937  0
Li  Li3  1  0.67531440  0.15940257  0.95642718  1  0  0.865426  0  0.368723  0  0  0.826626  0  0.469436  0  0  0.836441  0  0.452475  0  0  0.505556  0.819308  0  0.481931  0
Li  Li4  1  0.37862531  0.23053755  0.09176387  1  0  0.849889  0  0.412397  0  0  0.814982  0  0.508022  0  0  0.82432  0  0.491614  0  0  0.529707  0.807926  0  0.52055  0
Li  Li5  1  0.62137425  0.76946206  0.90823666  1  0  0.849889  0  0.412403  0  0  0.814978  0  0.508035  0  0  0.824316  0  0.491627  0  0  0.529704  0.807921  0  0.520564  0
H  H6  1  0.04859723  0.78129005  0.14968393  1  0  0.091508  0  0.975589  0  0  0.098531  0  1.047244  0  0  0.103314  0  1.042241  0  0  0.123447  0.095115  0  1.050622  0
H  H7  1  0.95140408  0.21871379  0.85031490  1  0  0.091504  0  0.975598  0  0  0.098528  0  1.047244  0  0  0.103311  0  1.04224  0  0  0.123442  0.095112  0  1.050622  0
H  H8  1  0.92422492  0.63128521  0.52146311  1  0  0.102673  0  0.950825  0  0  0.108561  0  1.021764  0  0  0.112699  0  1.018051  0  0  0.122231  0.105286  0  1.024902  0
H  H9  1  0.07577513  0.36870878  0.47853405  1  0  0.1027  0  0.950784  0  0  0.10859  0  1.021714  0  0  0.112729  0  1.018  0  0  0.122232  0.105312  0  1.024857  0
H  H10  1  0.39848131  0.15997059  0.65744100  1  0  0.099402  0  0.949216  0  0  0.106958  0  1.017657  0  0  0.111638  0  1.013133  0  0  0.127317  0.103461  0  1.021071  0
H  H11  1  0.60151538  0.84002903  0.34255881  1  0  0.099403  0  0.949235  0  0  0.106958  0  1.017675  0  0  0.11164  0  1.01315  0  0  0.127311  0.10346  0  1.021091  0
H  H12  1  0.10326032  0.33012852  0.17038457  1  0  0.459397  0  0.826266  0  0  0.429379  0  0.88816  0  0  0.438975  0  0.873924  0  0  0.322108  0.42257  0  0.898263  0
H  H13  1  0.89673923  0.66987109  0.82961490  1  0  0.459398  0  0.826268  0  0  0.429382  0  0.888158  0  0  0.438976  0  0.873925  0  0  0.322117  0.422572  0  0.898263  0
H  H14  1  0.19376392  0.45570024  0.08365929  1  0  0.44987  0  0.845034  0  0  0.419657  0  0.907752  0  0  0.429601  0  0.893096  0  0  0.312825  0.41253  0  0.918246  0
H  H15  1  0.80623421  0.54429937  0.91634088  1  0  0.449881  0  0.845021  0  0  0.419672  0  0.907733  0  0  0.429614  0  0.893079  0  0  0.312838  0.412546  0  0.918224  0
C  C16  1  0.34402644  0.12518758  0.34600800  1  0  0.737424  0  3.857188  0  0  0.693715  0  4.142578  0  0  0.726323  0  4.134331  0  0  0.24527  0.671513  0  4.147652  0
C  C17  1  0.65597144  0.87481485  0.65399386  1  0  0.73745  0  3.857188  0  0  0.69371  0  4.142632  0  0  0.726317  0  4.134386  0  0  0.245254  0.671509  0  4.147707  0
C  C18  1  0.78928219  0.51163311  0.18967547  1  0  0.72555  0  3.861385  0  0  0.676028  0  4.15456  0  0  0.71007  0  4.144072  0  0  0.246553  0.652868  0  4.161181  0
C  C19  1  0.21071940  0.48836790  0.81032592  1  0  0.725592  0  3.861473  0  0  0.676065  0  4.154655  0  0  0.710108  0  4.144169  0  0  0.246571  0.652904  0  4.161277  0
C  C20  1  0.22348710  0.94221975  0.78555224  1  0  0.700298  0  3.895362  0  0  0.65096  0  4.193782  0  0  0.684138  0  4.184366  0  0  0.238412  0.628332  0  4.199617  0
C  C21  1  0.77651389  0.05777985  0.21444760  1  0  0.700255  0  3.895455  0  0  0.650898  0  4.193896  0  0  0.684075  0  4.184484  0  0  0.238385  0.62827  0  4.199729  0
C  C22  1  0.23823958  0.98478995  0.39812523  1  0  -0.094242  0  3.758828  0  0  -0.067679  0  3.993378  0  0  -0.078898  0  4.018556  0  0  -0.007394  -0.060598  0  3.976476  0
C  C23  1  0.76176057  0.01521107  0.60187474  1  0  -0.094291  0  3.758839  0  0  -0.067725  0  3.993405  0  0  -0.078944  0  4.018582  0  0  -0.007409  -0.060645  0  3.976503  0
C  C24  1  0.08511433  0.81255813  0.27827661  1  0  -0.046975  0  3.6872  0  0  -0.086169  0  3.935004  0  0  -0.081528  0  3.951646  0  0  -0.052956  -0.088101  0  3.923005  0
C  C25  1  0.91488523  0.18744148  0.72172393  1  0  -0.046954  0  3.68712  0  0  -0.08613  0  3.934907  0  0  -0.081487  0  3.951547  0  0  -0.052938  -0.088063  0  3.922909  0
C  C26  1  0.96795012  0.68628040  0.32067189  1  0  -0.080675  0  3.744268  0  0  -0.053405  0  3.97957  0  0  -0.063632  0  4.002293  0  0  -0.003648  -0.047368  0  3.964594  0
C  C27  1  0.03205433  0.31372060  0.67932916  1  0  -0.080656  0  3.744197  0  0  -0.053405  0  3.979521  0  0  -0.063634  0  4.002245  0  0  -0.003657  -0.047368  0  3.964545  0
C  C28  1  0.01339461  0.72850850  0.48615418  1  0  -0.039921  0  3.66572  0  0  -0.079085  0  3.916012  0  0  -0.074298  0  3.932864  0  0  -0.050087  -0.081585  0  3.904731  0
C  C29  1  0.98660724  0.27148968  0.51384765  1  0  -0.039944  0  3.665686  0  0  -0.079097  0  3.915972  0  0  -0.074309  0  3.932823  0  0  -0.050093  -0.081595  0  3.90469  0
C  C30  1  0.17220688  0.89667787  0.60778350  1  0  -0.07063  0  3.725176  0  0  -0.0424  0  3.955908  0  0  -0.052853  0  3.980318  0  0  -0.001421  -0.035762  0  3.939412  0
C  C31  1  0.82779581  0.10331892  0.39221608  1  0  -0.070648  0  3.725273  0  0  -0.042406  0  3.955995  0  0  -0.05286  0  3.980405  0  0  -0.001433  -0.035767  0  3.939496  0
C  C32  1  0.28062949  0.02612191  0.56271034  1  0  -0.042754  0  3.690179  0  0  -0.081727  0  3.939964  0  0  -0.07795  0  3.958896  0  0  -0.052429  -0.08403  0  3.927472  0
C  C33  1  0.71937150  0.97387770  0.43728950  1  0  -0.042725  0  3.69023  0  0  -0.081701  0  3.940007  0  0  -0.077924  0  3.95894  0  0  -0.052402  -0.084006  0  3.927522  0
O  O34  1  0.43164746  0.29851683  0.44316409  1  0  -0.788078  0  1.937574  0  0  -0.741851  0  2.177091  0  0  -0.762853  0  2.162842  0  0  -0.433874  -0.727211  0  2.187086  0
O  O35  1  0.56834980  0.70148420  0.55683410  1  0  -0.788102  0  1.937589  0  0  -0.74185  0  2.177101  0  0  -0.762854  0  2.162854  0  0  -0.433858  -0.727206  0  2.187087  0
O  O36  1  0.33577916  0.06417238  0.20290274  1  0  -0.787912  0  2.000808  0  0  -0.745783  0  2.245289  0  0  -0.766151  0  2.230779  0  0  -0.433014  -0.732302  0  2.256017  0
O  O37  1  0.66422100  0.93582863  0.79709935  1  0  -0.787902  0  2.000856  0  0  -0.745765  0  2.24535  0  0  -0.766133  0  2.230842  0  0  -0.433007  -0.732284  0  2.256076  0
O  O38  1  0.79142257  0.44017047  0.05098323  1  0  -0.722198  0  1.953192  0  0  -0.667652  0  2.183343  0  0  -0.690282  0  2.169365  0  0  -0.358822  -0.651651  0  2.192557  0
O  O39  1  0.20857555  0.55982914  0.94901588  1  0  -0.722224  0  1.953289  0  0  -0.667674  0  2.183446  0  0  -0.690303  0  2.169464  0  0  -0.358838  -0.651671  0  2.19266  0
O  O40  1  0.64354417  0.44199095  0.22526977  1  0  -0.785587  0  1.978984  0  0  -0.740446  0  2.224368  0  0  -0.761554  0  2.209142  0  0  -0.436563  -0.725471  0  2.234771  0
O  O41  1  0.35645799  0.55801147  0.77472999  1  0  -0.785634  0  1.979002  0  0  -0.740486  0  2.224391  0  0  -0.761595  0  2.209164  0  0  -0.436572  -0.72551  0  2.234794  0
O  O42  1  0.11893283  0.83028330  0.82713601  1  0  -0.697286  0  1.970995  0  0  -0.645254  0  2.20339  0  0  -0.667822  0  2.192116  0  0  -0.335429  -0.628984  0  2.210826  0
O  O43  1  0.88106553  0.16971351  0.17286035  1  0  -0.697252  0  1.971014  0  0  -0.645209  0  2.203405  0  0  -0.667779  0  2.192139  0  0  -0.335412  -0.628939  0  2.210839  0
O  O44  1  0.37633085  0.09619231  0.89006087  1  0  -0.824005  0  1.995155  0  0  -0.780593  0  2.244556  0  0  -0.800344  0  2.227848  0  0  -0.456329  -0.766702  0  2.256449  0
O  O45  1  0.62367015  0.90380728  0.10994109  1  0  -0.82399  0  1.995155  0  0  -0.780571  0  2.244562  0  0  -0.800322  0  2.227854  0  0  -0.456298  -0.766679  0  2.256453  0
O  O46  1  0.22923689  0.39235751  0.16014971  1  0  -0.962117  0  1.787567  0  0  -0.917144  0  1.96292  0  0  -0.932862  0  1.930925  0  0  -0.668118  -0.905699  0  1.985642  0
O  O47  1  0.77076326  0.60764351  0.83985132  1  0  -0.962139  0  1.787585  0  0  -0.91717  0  1.962937  0  0  -0.932885  0  1.930945  0  0  -0.668147  -0.905725  0  1.985658  0
