# generated using pymatgen
data_CuH16C14(O4F3)2
_symmetry_space_group_name_H-M   'P 1'
_cell_length_a   5.26902225
_cell_length_b   12.52538723
_cell_length_c   13.98734795
_cell_angle_alpha   90.00009904
_cell_angle_beta   101.71345852
_cell_angle_gamma   89.99974664
_symmetry_Int_Tables_number   1
_chemical_formula_structural   CuH16C14(O4F3)2
_chemical_formula_sum   'Cu2 H32 C28 O16 F12'
_cell_volume   903.89285832
_cell_formula_units_Z   2
loop_
 _symmetry_equiv_pos_site_id
 _symmetry_equiv_pos_as_xyz
  1  'x, y, z'
loop_
 _atom_site_type_symbol
 _atom_site_label
 _atom_site_symmetry_multiplicity
 _atom_site_fract_x
 _atom_site_fract_y
 _atom_site_fract_z
 _atom_site_occupancy
 _atom_site_hle17_ddec_charge
 _atom_site_hle17_ddec_spin_density
 _atom_site_hle17_ddec_sum_bond_order
 _atom_site_hle17_magmom
 _atom_site_hse06_10hf_ddec_charge
 _atom_site_hse06_10hf_ddec_spin_density
 _atom_site_hse06_10hf_ddec_sum_bond_order
 _atom_site_hse06_10hf_magmom
 _atom_site_hse06_ddec_charge
 _atom_site_hse06_ddec_spin_density
 _atom_site_hse06_ddec_sum_bond_order
 _atom_site_hse06_magmom
 _atom_site_pbe_cm5_charge
 _atom_site_pbe_ddec_charge
 _atom_site_pbe_ddec_spin_density
 _atom_site_pbe_ddec_sum_bond_order
 _atom_site_pbe_magmom
Cu  Cu0  1  0.99999843  0.50000367  0.00000054  1  0.960381  0.689943  1.716684  0.516  0.948601  0.783188  2.107779  0.634  1.035826  0.853151  2.048661  0.729  0.727007  0.890037  0.731035  2.157545  0.57
Cu  Cu1  1  0.49999362  0.00000720  0.50000185  1  0.960538  0.689899  1.716533  0.516  0.948716  0.783187  2.107664  0.634  1.035874  0.853145  2.048532  0.729  0.727034  0.890158  0.731016  2.157374  0.57
H  H2  1  0.48378950  0.75269582  0.15226112  1  0.134665  -0.000645  1.007986  -0.001  0.132079  -0.000275  1.09018  0.0  0.136481  -0.000239  1.090163  0.0  0.099235  0.128798  -0.000282  1.090664  0.0
H  H3  1  0.01620817  0.25270386  0.34772830  1  0.134652  -0.000644  1.007784  -0.001  0.13205  -0.000274  1.090004  0.0  0.136449  -0.000239  1.089989  0.0  0.099228  0.128761  -0.000282  1.0905  0.0
H  H4  1  0.51619803  0.24730524  0.84774916  1  0.134666  -0.000645  1.007973  -0.001  0.132044  -0.000274  1.090226  0.0  0.136443  -0.000239  1.090218  0.0  0.099229  0.128769  -0.000282  1.090704  0.0
H  H5  1  0.98379479  0.74730359  0.65226457  1  0.134634  -0.000645  1.008007  -0.001  0.132093  -0.000275  1.090133  0.0  0.136492  -0.000239  1.090121  0.0  0.099225  0.128806  -0.000282  1.090621  0.0
H  H6  1  0.64171810  0.52640099  0.26696127  1  0.031811  1.4e-05  0.906053  0.0  0.038317  2e-05  0.969543  0.0  0.04038  -9.1e-05  0.966028  0.0  0.110429  0.036674  0.000178  0.972451  0.0
H  H7  1  0.85826972  0.02640745  0.23302655  1  0.031713  1.4e-05  0.905963  0.0  0.038211  2e-05  0.969535  0.0  0.040251  -9e-05  0.966046  0.0  0.110397  0.036572  0.000178  0.972437  0.0
H  H8  1  0.35829648  0.47359847  0.73303177  1  0.031867  1.4e-05  0.905927  0.0  0.038307  1.9e-05  0.969419  0.0  0.040345  -9.1e-05  0.965927  0.0  0.1104  0.036667  0.000178  0.972328  0.0
H  H9  1  0.14171584  0.97359201  0.76697644  1  0.031745  1.3e-05  0.905986  0.0  0.038217  2e-05  0.969476  0.0  0.040261  -9.2e-05  0.965976  0.0  0.110381  0.03659  0.000178  0.972399  0.0
H  H10  1  0.97042366  0.32648107  0.18158556  1  0.093538  0.000165  0.939028  0.0  0.11177  5.3e-05  1.0021  0.0  0.112757  2e-06  1.001348  0.0  0.098155  0.111109  0.000126  1.002613  0.0
H  H11  1  0.52958996  0.82648606  0.31841615  1  0.093499  0.000168  0.93909  0.0  0.111757  5.3e-05  1.00213  0.0  0.112743  2e-06  1.001382  0.0  0.098105  0.111097  0.000126  1.002644  0.0
H  H12  1  0.02958513  0.67351360  0.81841132  1  0.093463  0.000166  0.939164  0.0  0.111784  5.3e-05  1.002143  0.0  0.112771  1e-06  1.001388  0.0  0.098128  0.111121  0.000126  1.002658  0.0
H  H13  1  0.47043631  0.17350462  0.68159064  1  0.09347  0.000167  0.939117  0.0  0.111802  5.3e-05  1.002076  0.0  0.112789  1e-06  1.001323  0.0  0.098135  0.111139  0.000126  1.002594  0.0
H  H14  1  0.63104765  0.34520009  0.13241209  1  0.091  0.000314  0.944913  0.0  0.10716  0.000121  1.009584  0.0  0.108698  3.4e-05  1.008763  0.0  0.094584  0.106169  0.000259  1.010102  0.0
H  H15  1  0.86896384  0.84520540  0.36759307  1  0.090967  0.000316  0.944972  0.0  0.10716  0.000121  1.009607  0.0  0.108699  3.4e-05  1.008784  0.0  0.09457  0.10617  0.000259  1.010125  0.0
H  H16  1  0.36895919  0.65479937  0.86758250  1  0.090988  0.000315  0.944976  0.0  0.107225  0.000121  1.009546  0.0  0.108766  3.4e-05  1.008719  0.0  0.094592  0.106233  0.000259  1.010066  0.0
H  H17  1  0.13106050  0.15479805  0.63241644  1  0.091034  0.000316  0.945008  0.0  0.107214  0.000121  1.009645  0.0  0.108751  3.4e-05  1.008828  0.0  0.094616  0.106223  0.000259  1.010166  0.0
H  H18  1  0.75659415  0.36722736  0.25982415  1  0.07391  3.4e-05  0.958168  0.0  0.087859  6e-06  1.032391  0.0  0.089763  4e-06  1.029448  0.0  0.088584  0.086421  2.2e-05  1.034627  0.0
H  H19  1  0.74342095  0.86722707  0.24017774  1  0.073901  3.7e-05  0.958131  0.0  0.087879  6e-06  1.032341  0.0  0.089793  5e-06  1.029379  0.0  0.088568  0.086441  2.2e-05  1.034578  0.0
H  H20  1  0.24340495  0.63277050  0.74017342  1  0.073922  3.6e-05  0.95819  0.0  0.087887  6e-06  1.032396  0.0  0.089789  4e-06  1.029453  0.0  0.088611  0.086449  2.2e-05  1.034633  0.0
H  H21  1  0.25660920  0.13276920  0.75982934  1  0.073955  3.6e-05  0.958203  0.0  0.087933  6e-06  1.032403  0.0  0.089837  4e-06  1.02946  0.0  0.088621  0.086497  2.2e-05  1.034634  0.0
H  H22  1  0.19619863  0.58141525  0.29296105  1  0.082204  -6.5e-05  0.961499  0.0  0.092149  -2.2e-05  1.039013  0.0  0.093494  -1.3e-05  1.037693  0.0  0.086255  0.09108  -2.4e-05  1.040081  0.0
H  H23  1  0.30379520  0.08141537  0.20704281  1  0.082224  -6.7e-05  0.961505  0.0  0.092139  -2.2e-05  1.039056  0.0  0.093482  -1.3e-05  1.03774  0.0  0.086239  0.091081  -2.4e-05  1.040113  0.0
H  H24  1  0.80380626  0.41858661  0.70703053  1  0.082151  -7e-05  0.961599  0.0  0.092171  -2.2e-05  1.039031  0.0  0.093521  -1.3e-05  1.037701  0.0  0.08626  0.091074  -2.4e-05  1.040127  0.0
H  H25  1  0.69618842  0.91858409  0.79295789  1  0.082208  -6.4e-05  0.961536  0.0  0.092128  -2.2e-05  1.039063  0.0  0.093471  -1.3e-05  1.037748  0.0  0.086271  0.091066  -2.4e-05  1.040124  0.0
H  H26  1  0.98143243  0.61616409  0.37243857  1  0.082164  -7.2e-05  0.947706  0.0  0.092923  -2e-05  1.024051  0.0  0.095074  -1.5e-05  1.020951  0.0  0.086277  0.091379  -2.2e-05  1.026253  0.0
H  H27  1  0.51855833  0.11616694  0.12756320  1  0.082122  -7.5e-05  0.947699  0.0  0.092889  -2e-05  1.024075  0.0  0.095045  -1.6e-05  1.020967  0.0  0.086231  0.091343  -2.2e-05  1.026276  0.0
H  H28  1  0.01857053  0.38383457  0.62755644  1  0.082056  -7.8e-05  0.947818  0.0  0.092805  -2e-05  1.024182  0.0  0.094964  -1.6e-05  1.021071  0.0  0.086218  0.091258  -2.2e-05  1.026386  0.0
H  H29  1  0.48143886  0.88383092  0.87244067  1  0.082125  -7.1e-05  0.9477  0.0  0.092893  -2e-05  1.024042  0.0  0.095046  -1.6e-05  1.020935  0.0  0.086245  0.091346  -2.2e-05  1.026245  0.0
H  H30  1  0.14961262  0.71875478  0.32088448  1  0.093528  0.000153  0.940935  0.0  0.111808  0.000139  1.005802  0.0  0.112558  8.3e-05  1.005351  0.0  0.099751  0.111216  0.000193  1.006162  0.0
H  H31  1  0.35037386  0.21875717  0.17911976  1  0.093487  0.000152  0.941159  0.0  0.111878  0.000139  1.005861  0.0  0.112629  8.3e-05  1.005407  0.0  0.099764  0.111286  0.000193  1.006227  0.0
H  H32  1  0.85039034  0.28124947  0.67911125  1  0.093499  0.00015  0.941081  0.0  0.111766  0.000139  1.005946  0.0  0.112517  8.3e-05  1.005493  0.0  0.099726  0.111176  0.000193  1.006309  0.0
H  H33  1  0.64962138  0.78123989  0.82088181  1  0.093594  0.000154  0.940937  0.0  0.111908  0.000139  1.005725  0.0  0.112658  8.2e-05  1.00527  0.0  0.099773  0.111315  0.000193  1.00609  0.0
C  C34  1  0.12571816  0.71676421  0.05437955  1  0.265616  -0.011336  3.852272  -0.01  0.249307  -0.004012  4.12551  -0.004  0.274539  -0.004438  4.1333  -0.004  0.107193  0.232279  -0.003433  4.120243  -0.004
C  C35  1  0.37425472  0.21677182  0.44561151  1  0.26583  -0.011339  3.851781  -0.01  0.249572  -0.004012  4.124952  -0.004  0.274797  -0.004434  4.132742  -0.004  0.107305  0.232545  -0.003432  4.119718  -0.004
C  C36  1  0.87429068  0.28323525  0.94562878  1  0.265321  -0.011348  3.852568  -0.01  0.249234  -0.004009  4.125489  -0.004  0.274454  -0.004436  4.133295  -0.004  0.107199  0.232213  -0.003432  4.120218  -0.004
C  C37  1  0.62570755  0.78323323  0.55438328  1  0.265878  -0.011351  3.851663  -0.01  0.249447  -0.00401  4.125112  -0.004  0.274665  -0.004442  4.132914  -0.004  0.10731  0.232426  -0.003434  4.11985  -0.004
C  C38  1  0.36311184  0.69034492  0.11326948  1  -0.358684  0.005294  3.750424  0.008  -0.404792  0.002213  4.03442  0.005  -0.42962  0.000603  4.055102  0.003  -0.149404  -0.388559  0.003816  4.021024  0.006
C  C39  1  0.13688652  0.19034723  0.38671989  1  -0.35888  0.005293  3.750534  0.008  -0.405023  0.002211  4.034488  0.005  -0.429847  0.000604  4.055164  0.003  -0.149501  -0.388784  0.003814  4.021116  0.006
C  C40  1  0.63689506  0.30965374  0.88673798  1  -0.358728  0.005301  3.750359  0.008  -0.404876  0.002213  4.034236  0.005  -0.429706  0.000605  4.054931  0.003  -0.149482  -0.388644  0.003817  4.020826  0.006
C  C41  1  0.86311062  0.80965462  0.61327325  1  -0.358881  0.005309  3.750402  0.008  -0.40501  0.002211  4.034439  0.005  -0.429839  0.000606  4.05513  0.003  -0.149534  -0.388767  0.003816  4.021037  0.006
C  C42  1  0.45360481  0.58477606  0.12596248  1  0.403273  -0.01297  3.689991  -0.011  0.383499  -0.004635  3.965264  -0.004  0.414059  -0.005377  3.967485  -0.004  0.133814  0.362795  -0.003597  3.963344  -0.004
C  C43  1  0.04639670  0.08477611  0.37403410  1  0.403274  -0.012989  3.689962  -0.011  0.38367  -0.004638  3.965033  -0.004  0.414233  -0.005377  3.967239  -0.004  0.133925  0.36295  -0.003599  3.963149  -0.004
C  C44  1  0.54640594  0.41522739  0.87404027  1  0.403194  -0.01298  3.68997  -0.011  0.383525  -0.004632  3.965144  -0.004  0.414081  -0.005378  3.967363  -0.004  0.13379  0.362825  -0.003595  3.963229  -0.004
C  C45  1  0.95358497  0.91522335  0.62596574  1  0.403337  -0.012986  3.690084  -0.011  0.383558  -0.00463  3.965307  -0.004  0.41411  -0.005379  3.967527  -0.004  0.133899  0.362877  -0.003595  3.963403  -0.004
C  C46  1  0.05082122  0.83604441  0.04604674  1  0.725239  0.010054  3.611037  0.012  0.648797  0.006709  3.953201  0.009  0.676983  0.004555  3.925155  0.006  0.305264  0.628662  0.008427  3.973373  0.01
C  C47  1  0.44918523  0.33605111  0.45394706  1  0.725829  0.010061  3.610198  0.012  0.649264  0.006711  3.952539  0.009  0.677453  0.004553  3.924496  0.006  0.305424  0.629081  0.008428  3.972801  0.01
C  C48  1  0.94919536  0.16394946  0.95396075  1  0.725598  0.01007  3.610501  0.012  0.648893  0.006711  3.952952  0.009  0.677074  0.004556  3.924929  0.006  0.30523  0.628748  0.00843  3.973157  0.01
C  C49  1  0.55080609  0.66394835  0.54604277  1  0.725561  0.01006  3.610409  0.012  0.648949  0.006711  3.952908  0.009  0.67713  0.004555  3.924886  0.006  0.305172  0.628796  0.008428  3.973128  0.01
C  C50  1  0.70285873  0.56010203  0.20145270  1  0.273856  0.01255  3.673949  0.014  0.232358  0.007458  3.926828  0.009  0.241617  0.004865  3.928535  0.006  0.095005  0.225604  0.009629  3.925849  0.011
C  C51  1  0.79713650  0.06010073  0.29854217  1  0.274139  0.012554  3.673643  0.014  0.232477  0.007458  3.926709  0.009  0.241748  0.004866  3.928409  0.006  0.094942  0.225724  0.009629  3.92573  0.011
C  C52  1  0.29715975  0.43989903  0.79854563  1  0.273802  0.012554  3.673823  0.014  0.232602  0.00746  3.926238  0.009  0.241885  0.004867  3.927928  0.006  0.09513  0.225827  0.009631  3.92529  0.011
C  C53  1  0.20284324  0.93989713  0.70145823  1  0.27414  0.012559  3.673663  0.014  0.232816  0.007459  3.926267  0.009  0.242104  0.004869  3.927935  0.006  0.095208  0.22597  0.009631  3.925441  0.011
C  C54  1  0.79865694  0.37386019  0.18612662  1  -0.069556  0.000142  3.634995  0.0  -0.167249  7.9e-05  3.911549  0.0  -0.160691  -6.1e-05  3.912182  0.0  -0.15381  -0.171621  0.000285  3.910492  0.0
C  C55  1  0.70135615  0.87386489  0.31387585  1  -0.069462  0.000126  3.6351  0.0  -0.167228  8e-05  3.911571  0.0  -0.16067  -6.1e-05  3.912204  0.0  -0.153727  -0.1716  0.000285  3.910511  0.0
C  C56  1  0.20135185  0.62613767  0.81387098  1  -0.069548  0.000134  3.635144  0.0  -0.167358  7.8e-05  3.911683  0.0  -0.160796  -6.1e-05  3.912311  0.0  -0.153862  -0.171733  0.000285  3.910627  0.0
C  C57  1  0.29866431  0.12613378  0.68613193  1  -0.0696  0.000132  3.635298  0.0  -0.167401  8e-05  3.911836  0.0  -0.160843  -6e-05  3.912464  0.0  -0.153869  -0.171774  0.000285  3.910779  0.0
C  C58  1  0.05562479  0.64071654  0.30765884  1  -0.079602  0.000959  3.641126  0.001  -0.1826  0.000592  3.920978  0.001  -0.176279  0.000359  3.924687  0.0  -0.154981  -0.186726  0.00082  3.918361  0.001
C  C59  1  0.44435867  0.14071960  0.19234147  1  -0.079552  0.000967  3.6413  0.001  -0.182609  0.000591  3.921096  0.001  -0.176288  0.00036  3.924797  0.0  -0.154967  -0.186744  0.00082  3.918474  0.001
C  C60  1  0.94437234  0.35928531  0.69233287  1  -0.079403  0.000977  3.641152  0.001  -0.182396  0.000592  3.920925  0.001  -0.176076  0.000359  3.924621  0.0  -0.154897  -0.186506  0.00082  3.91834  0.001
C  C61  1  0.55563271  0.85927906  0.80766196  1  -0.079616  0.000957  3.640988  0.001  -0.182574  0.000592  3.920792  0.001  -0.176245  0.00036  3.924494  0.0  -0.154966  -0.186704  0.00082  3.918169  0.001
O  O62  1  0.95797782  0.65629667  0.00220884  1  -0.467695  0.068544  2.12805  0.095  -0.446494  0.048917  2.407485  0.074  -0.482787  0.036791  2.4007  0.061  -0.293846  -0.422504  0.056485  2.412497  0.081
O  O63  1  0.54199120  0.15630573  0.49779421  1  -0.467881  0.068555  2.127666  0.095  -0.446713  0.04892  2.407098  0.074  -0.482998  0.036793  2.4003  0.061  -0.293993  -0.422706  0.056491  2.412053  0.081
O  O64  1  0.04201162  0.34370119  0.99779372  1  -0.467636  0.068524  2.128381  0.095  -0.446506  0.048904  2.407698  0.074  -0.482799  0.036781  2.400924  0.061  -0.293879  -0.422519  0.056473  2.412703  0.081
O  O65  1  0.45797308  0.84370092  0.50221431  1  -0.467914  0.068527  2.127972  0.095  -0.446635  0.048908  2.407399  0.074  -0.48291  0.036784  2.400604  0.061  -0.293938  -0.42265  0.056478  2.4124  0.081
O  O66  1  0.34110761  0.50215911  0.08483384  1  -0.473287  0.080501  2.128404  0.111  -0.446173  0.051155  2.404795  0.077  -0.484721  0.037842  2.397959  0.062  -0.282483  -0.420362  0.059875  2.409491  0.085
O  O67  1  0.15889483  0.00215905  0.41516624  1  -0.473248  0.080505  2.128328  0.111  -0.446202  0.051154  2.404682  0.077  -0.484733  0.037841  2.397823  0.062  -0.282502  -0.42039  0.059876  2.409379  0.085
O  O68  1  0.65890505  0.49784514  0.91516333  1  -0.472973  0.080511  2.128292  0.111  -0.446181  0.051156  2.404898  0.077  -0.484738  0.037844  2.398079  0.062  -0.282468  -0.420364  0.05988  2.409588  0.085
O  O69  1  0.84108495  0.99784521  0.58484417  1  -0.473334  0.080516  2.128497  0.111  -0.446227  0.051155  2.404859  0.077  -0.48477  0.037841  2.398028  0.062  -0.282517  -0.420412  0.059879  2.409532  0.085
O  O70  1  0.85802182  0.48243162  0.16625270  1  -0.32811  -0.000216  2.32609  0.001  -0.269284  -0.001675  2.593703  -0.001  -0.284846  -0.002293  2.591001  -0.001  -0.228468  -0.257197  -0.000567  2.59463  0.001
O  O71  1  0.64199005  0.98243725  0.33374485  1  -0.328213  -0.000213  2.326202  0.001  -0.269344  -0.001672  2.593877  -0.001  -0.284897  -0.002296  2.591158  -0.001  -0.228448  -0.257259  -0.000566  2.594806  0.001
O  O72  1  0.14199474  0.51756704  0.83374763  1  -0.328199  -0.000215  2.326033  0.001  -0.269462  -0.001676  2.593602  -0.001  -0.285025  -0.002294  2.59089  -0.001  -0.228477  -0.257368  -0.000566  2.59453  0.001
O  O73  1  0.35800907  0.01755902  0.66625702  1  -0.328247  -0.000213  2.326127  0.001  -0.269508  -0.001674  2.593788  -0.001  -0.285061  -0.002292  2.59106  -0.001  -0.228554  -0.2574  -0.000565  2.594746  0.001
O  O74  1  0.84614427  0.65330943  0.22486862  1  -0.296457  0.000409  2.31628  0.001  -0.217578  0.000391  2.556992  0.001  -0.235723  0.000223  2.562085  0.0  -0.218059  -0.204562  0.000543  2.553048  0.001
O  O75  1  0.65384994  0.15331152  0.27512990  1  -0.296526  0.000408  2.316047  0.001  -0.217622  0.00039  2.556819  0.001  -0.235767  0.000224  2.561906  0.0  -0.217981  -0.204607  0.000543  2.55288  0.001
O  O76  1  0.15385869  0.34669003  0.77512568  1  -0.296404  0.000406  2.315872  0.001  -0.217657  0.000391  2.556576  0.001  -0.235803  0.000223  2.561658  0.0  -0.218113  -0.204644  0.000543  2.552645  0.001
O  O77  1  0.34612788  0.84668634  0.72487535  1  -0.296494  0.00041  2.315997  0.001  -0.2177  0.00039  2.556725  0.001  -0.235851  0.000222  2.561806  0.0  -0.218135  -0.20467  0.000544  2.552822  0.001
F  F78  1  0.79604673  0.85170159  0.04685886  1  -0.245096  0.000148  1.169877  0.0  -0.20389  0.000183  1.335739  0.0  -0.21444  5.3e-05  1.320471  0.0  -0.093906  -0.196179  0.000324  1.346145  0.0
F  F79  1  0.70394326  0.35170311  0.45312251  1  -0.245223  0.000146  1.169857  0.0  -0.204043  0.000184  1.335794  0.0  -0.214566  5.4e-05  1.320504  0.0  -0.093872  -0.196241  0.000324  1.346139  0.0
F  F80  1  0.20395620  0.14829388  0.95312900  1  -0.245138  0.000146  1.169889  0.0  -0.203928  0.000185  1.335845  0.0  -0.214417  5.4e-05  1.320529  0.0  -0.093868  -0.196182  0.000324  1.346228  0.0
F  F81  1  0.29604222  0.64828598  0.54686188  1  -0.24512  0.000147  1.169908  0.0  -0.203904  0.000184  1.335837  0.0  -0.214398  5.3e-05  1.320522  0.0  -0.093791  -0.196156  0.000324  1.346216  0.0
F  F82  1  0.09343505  0.87678323  0.95952095  1  -0.263041  -9.5e-05  1.140807  0.0  -0.221611  -8.3e-05  1.305012  0.0  -0.232857  -0.000193  1.28972  0.0  -0.10126  -0.213711  2.2e-05  1.315688  0.0
F  F83  1  0.40656858  0.37679168  0.54047142  1  -0.263172  -9.7e-05  1.140549  0.0  -0.221657  -8.6e-05  1.304748  0.0  -0.232916  -0.000196  1.289471  0.0  -0.101313  -0.213773  2.2e-05  1.315451  0.0
F  F84  1  0.90659124  0.12321383  0.04049156  1  -0.26309  -9.8e-05  1.140593  0.0  -0.221478  -8.4e-05  1.304732  0.0  -0.232742  -0.000195  1.289461  0.0  -0.101189  -0.213635  2.2e-05  1.315477  0.0
F  F85  1  0.59342659  0.62321896  0.45951442  1  -0.263135  -9.6e-05  1.140715  0.0  -0.221536  -8.6e-05  1.304865  0.0  -0.23279  -0.000194  1.289577  0.0  -0.101215  -0.213676  2.2e-05  1.315592  0.0
F  F86  1  0.19036737  0.89690315  0.11900980  1  -0.249471  0.001162  1.166453  0.002  -0.202665  0.001093  1.327642  0.002  -0.212369  0.000735  1.311393  0.001  -0.091819  -0.195784  0.001406  1.338949  0.002
F  F87  1  0.30962484  0.39691235  0.38098303  1  -0.249724  0.001162  1.166295  0.002  -0.202876  0.001095  1.327504  0.002  -0.212588  0.000736  1.31126  0.001  -0.091883  -0.196001  0.001407  1.338833  0.002
F  F88  1  0.80961240  0.10309870  0.88099632  1  -0.249579  0.001162  1.166282  0.002  -0.202714  0.001094  1.32751  0.002  -0.212432  0.000735  1.311272  0.001  -0.091825  -0.195826  0.001406  1.338825  0.002
F  F89  1  0.69038392  0.60308711  0.61900670  1  -0.249646  0.001162  1.166194  0.002  -0.202786  0.001094  1.327419  0.002  -0.212504  0.000736  1.311181  0.001  -0.091853  -0.195901  0.001406  1.338734  0.002
