# generated using pymatgen
data_CuH14(C8O3)2
_symmetry_space_group_name_H-M   'P 1'
_cell_length_a   5.73143432
_cell_length_b   9.19417676
_cell_length_c   15.29186294
_cell_angle_alpha   104.68790233
_cell_angle_beta   100.84297146
_cell_angle_gamma   89.98902220
_symmetry_Int_Tables_number   1
_chemical_formula_structural   CuH14(C8O3)2
_chemical_formula_sum   'Cu2 H28 C32 O12'
_cell_volume   764.60992609
_cell_formula_units_Z   2
loop_
 _symmetry_equiv_pos_site_id
 _symmetry_equiv_pos_as_xyz
  1  'x, y, z'
loop_
 _atom_site_type_symbol
 _atom_site_label
 _atom_site_symmetry_multiplicity
 _atom_site_fract_x
 _atom_site_fract_y
 _atom_site_fract_z
 _atom_site_occupancy
 _atom_site_hle17_ddec_charge
 _atom_site_hle17_ddec_spin_density
 _atom_site_hle17_ddec_sum_bond_order
 _atom_site_hle17_magmom
 _atom_site_hse06_10hf_ddec_charge
 _atom_site_hse06_10hf_ddec_spin_density
 _atom_site_hse06_10hf_ddec_sum_bond_order
 _atom_site_hse06_10hf_magmom
 _atom_site_hse06_ddec_charge
 _atom_site_hse06_ddec_spin_density
 _atom_site_hse06_ddec_sum_bond_order
 _atom_site_hse06_magmom
 _atom_site_pbe_cm5_charge
 _atom_site_pbe_ddec_charge
 _atom_site_pbe_ddec_spin_density
 _atom_site_pbe_ddec_sum_bond_order
 _atom_site_pbe_magmom
Cu  Cu0  1  0.63112881  0.17658486  0.48333377  1  0.98204  -0.717345  1.71902  -0.527  0.991766  -0.81958  2.100511  -0.666  1.076814  -0.896503  2.042454  -0.757  0.722671  0.925663  -0.741359  2.155794  -0.586
Cu  Cu1  1  0.14706333  0.82291695  0.51665072  1  0.981524  0.716591  1.718142  0.526  0.99214  0.819473  2.098886  0.666  1.076864  0.896521  2.041381  0.757  0.722795  0.925992  0.741148  2.154255  0.586
H  H2  1  0.24468881  0.20112251  0.24620733  1  0.101399  8.6e-05  0.94755  0.0  0.112517  4.8e-05  1.007075  0.0  0.115215  3.6e-05  1.006475  0.0  0.103857  0.110348  6.3e-05  1.008028  0.0
H  H3  1  0.99741900  0.79902892  0.75354914  1  0.100517  -9.2e-05  0.948411  0.0  0.111176  -5e-05  1.008708  0.0  0.113905  -3.7e-05  1.00803  0.0  0.103655  0.109031  -6.5e-05  1.009662  0.0
H  H4  1  0.75122795  0.56461608  0.27184419  1  0.099577  8e-05  0.964342  0.0  0.108942  0.000104  1.028157  0.0  0.112307  6.7e-05  1.026405  0.0  0.099236  0.106373  0.000167  1.029717  0.0
H  H5  1  0.47840874  0.43551497  0.72854933  1  0.099669  -8.1e-05  0.963309  0.0  0.109159  -0.000103  1.027042  0.0  0.112543  -6.6e-05  1.025245  0.0  0.09929  0.106585  -0.000165  1.02859  0.0
H  H6  1  0.45903030  0.93946720  0.79706097  1  0.093298  -5e-05  0.969044  0.0  0.101951  -4e-06  1.030777  0.0  0.104148  -4e-06  1.030873  0.0  0.098029  0.100208  -3e-06  1.031207  0.0
H  H7  1  0.66101680  0.06036447  0.20219305  1  0.093335  4.5e-05  0.969278  0.0  0.101716  2e-06  1.031242  0.0  0.103908  4e-06  1.031343  0.0  0.097937  0.099982  0.0  1.031658  0.0
H  H8  1  0.39083393  0.30906871  0.00332310  1  0.08309  -3.3e-05  0.967651  0.0  0.094654  -2.7e-05  1.029784  0.0  0.09718  -1.6e-05  1.029335  0.0  0.097722  0.092822  -4.3e-05  1.030187  0.0
H  H9  1  0.38714557  0.69198678  0.99681042  1  0.08341  0.0  0.968283  0.0  0.094794  1.5e-05  1.030425  0.0  0.097349  1e-05  1.029912  0.0  0.097681  0.092963  2.4e-05  1.030823  0.0
H  H10  1  0.59298063  0.99867419  0.66500431  1  0.111035  9.3e-05  0.942651  0.0  0.118542  -6.9e-05  1.007098  0.0  0.121342  -6.3e-05  1.005235  0.0  0.105302  0.116812  -6.9e-05  1.008077  0.0
H  H11  1  0.92591592  0.00086926  0.33459775  1  0.110905  -9.6e-05  0.943826  0.0  0.118321  7e-05  1.008337  0.0  0.121194  6.4e-05  1.006426  0.0  0.105045  0.116566  7e-05  1.009333  0.0
H  H12  1  0.07080511  0.35373826  0.85095360  1  0.086431  0.000173  0.97518  0.0  0.094486  4e-06  1.042528  0.0  0.096402  2e-06  1.043446  0.0  0.09497  0.092955  1e-05  1.042312  0.0
H  H13  1  0.21897515  0.64587335  0.14930112  1  0.086485  -0.000171  0.975594  0.0  0.094636  -5e-06  1.042895  0.0  0.096607  -2e-06  1.04377  0.0  0.094965  0.093068  -1.2e-05  1.042715  0.0
H  H14  1  0.68294877  0.51434528  0.10197776  1  0.082188  -1.5e-05  0.969408  0.0  0.093326  2e-06  1.030147  0.0  0.09568  0.0  1.030226  0.0  0.095523  0.09148  5e-06  1.030472  0.0
H  H15  1  0.57996993  0.48627232  0.89846214  1  0.082834  1.3e-05  0.968185  0.0  0.093677  -2e-06  1.02922  0.0  0.096095  -0.0  1.02921  0.0  0.095758  0.091844  -4e-06  1.029535  0.0
H  H16  1  0.62921150  0.08804236  0.95749465  1  0.079849  0.000219  0.969732  0.0  0.09056  -2.2e-05  1.033114  0.0  0.092982  -1e-05  1.032556  0.0  0.095934  0.088797  -3.5e-05  1.033584  0.0
H  H17  1  0.67247233  0.91206543  0.04186682  1  0.079213  -0.000253  0.970164  0.0  0.090051  1e-05  1.033485  0.0  0.092498  4e-06  1.032878  0.0  0.095449  0.088247  1.8e-05  1.033993  0.0
H  H18  1  0.17355834  0.15268950  0.07696688  1  0.085809  1.6e-05  0.956064  0.0  0.098124  9e-06  1.013068  0.0  0.100818  6e-06  1.012661  0.0  0.099719  0.096093  1.2e-05  1.013659  0.0
H  H19  1  0.09612862  0.84821478  0.92284315  1  0.085418  -2.3e-05  0.955574  0.0  0.097744  -1.4e-05  1.012643  0.0  0.100376  -9e-06  1.012316  0.0  0.099414  0.095763  -1.9e-05  1.01316  0.0
H  H20  1  0.93280785  0.29568614  0.98420864  1  0.082127  -2.5e-05  0.971519  0.0  0.092311  1.4e-05  1.03362  0.0  0.094542  7e-06  1.033505  0.0  0.096579  0.090763  1.7e-05  1.033725  0.0
H  H21  1  0.94912483  0.70422544  0.01569392  1  0.081825  1.1e-05  0.972017  0.0  0.09199  -1.7e-05  1.034107  0.0  0.094218  -9e-06  1.033985  0.0  0.096155  0.090428  -2.1e-05  1.034223  0.0
H  H22  1  0.60670765  0.53551660  0.40677983  1  0.074614  0.00015  0.914677  0.0  0.083452  8e-05  0.97654  0.0  0.08612  5.4e-05  0.974109  0.0  0.113369  0.081356  8.6e-05  0.978597  0.0
H  H23  1  0.19860971  0.46441543  0.59337747  1  0.074975  -0.000153  0.914985  0.0  0.083506  -8.2e-05  0.976077  0.0  0.086142  -5.5e-05  0.97368  0.0  0.113703  0.081438  -8.8e-05  0.97813  0.0
H  H24  1  0.07404941  0.29623151  0.69257397  1  0.073063  -0.000209  0.924453  0.0  0.082993  -0.000152  0.9832  0.0  0.084275  -0.00014  0.982282  0.0  0.11818  0.081903  -0.000116  0.984424  0.0
H  H25  1  0.38028992  0.70352914  0.30758399  1  0.073671  0.000215  0.922709  0.0  0.083563  0.000155  0.981151  0.0  0.084841  0.000143  0.980233  0.0  0.118389  0.082463  0.000117  0.982359  0.0
H  H26  1  0.90161185  0.36965026  0.40075109  1  0.390569  7.9e-05  0.903462  0.0  0.366591  2.1e-05  0.971735  0.0  0.379113  2.1e-05  0.956446  0.0  0.296737  0.35763  2e-05  0.981804  0.0
H  H27  1  0.49971958  0.63006936  0.59937613  1  0.391231  -8e-05  0.902639  0.0  0.366879  -2.2e-05  0.971564  0.0  0.379483  -2.2e-05  0.956067  0.0  0.296899  0.357858  -2.1e-05  0.981689  0.0
H  H28  1  0.76292923  0.39687941  0.62444366  1  0.387783  0.000671  0.918421  0.002  0.354914  0.000231  1.002808  0.001  0.367449  0.00024  0.985196  0.001  0.297326  0.345983  -1e-05  1.012618  0.001
H  H29  1  0.13824915  0.60295125  0.37577017  1  0.388538  -0.000681  0.918147  -0.002  0.355584  -0.00024  1.002254  -0.001  0.368126  -0.000246  0.98463  -0.001  0.297354  0.346681  -1e-06  1.01257  -0.001
C  C30  1  0.55633681  0.41483007  0.37478068  1  0.06686  -0.0012  3.680836  -0.002  0.040532  -0.000598  3.93406  -0.001  0.042913  -0.000351  3.939925  -0.001  -0.001454  0.038735  -0.000753  3.929589  -0.001
C  C31  1  0.18044124  0.58512817  0.62532786  1  0.063576  0.001181  3.686843  0.002  0.039826  0.000589  3.935404  0.001  0.042237  0.000346  3.941339  0.001  -0.002159  0.037937  0.000739  3.930952  0.001
C  C32  1  0.33803016  0.38115389  0.41190652  1  0.654879  0.004575  3.789801  0.007  0.602302  0.000389  4.101894  0.002  0.638267  0.000549  4.094095  0.002  0.226658  0.577401  0.000377  4.106425  0.003
C  C33  1  0.92482562  0.61886718  0.58816953  1  0.653198  -0.004581  3.795617  -0.007  0.601292  -0.00041  4.105497  -0.002  0.637188  -0.000562  4.097787  -0.002  0.226308  0.576429  -0.000404  4.109948  -0.003
C  C34  1  0.50236821  0.38685830  0.27069820  1  0.036854  1.9e-05  3.742254  0.0  0.050354  0.000119  3.983787  0.0  0.048353  0.000141  4.008185  0.0  -0.019179  0.051535  3.2e-05  3.967318  0.0
C  C35  1  0.23063148  0.61326327  0.72939151  1  0.03786  0.000269  3.741959  0.0  0.050197  -6.3e-05  3.983767  0.0  0.048202  -0.000119  4.008146  0.0  -0.018865  0.051399  6.4e-05  3.967317  0.0
C  C36  1  0.98443788  0.07911976  0.60047254  1  0.623644  -0.000838  3.817216  -0.002  0.583177  -0.001403  4.123728  -0.003  0.621207  -0.00148  4.11787  -0.003  0.211557  0.557043  -0.001203  4.125845  -0.003
C  C37  1  0.38314476  0.92071047  0.39976564  1  0.62123  0.000848  3.820061  0.003  0.58111  0.001377  4.125585  0.003  0.619145  0.001468  4.119791  0.003  0.210598  0.554969  0.001183  4.127699  0.003
C  C38  1  0.91656491  0.21751439  0.66852348  1  0.080304  0.007271  3.63212  0.009  0.0581  0.00305  3.871079  0.005  0.061952  0.001934  3.877015  0.003  0.007477  0.054719  0.003872  3.867695  0.006
C  C39  1  0.24693742  0.78233744  0.33162175  1  0.080992  -0.00738  3.627426  -0.009  0.059207  -0.003099  3.864502  -0.005  0.063111  -0.001958  3.870328  -0.003  0.007566  0.055845  -0.003927  3.861101  -0.006
C  C40  1  0.34073607  0.27064092  0.21507563  1  -0.097479  -0.000899  3.728776  -0.001  -0.117568  -0.000211  3.972501  0.0  -0.118673  -0.000123  3.992538  0.0  -0.087202  -0.116685  -0.000344  3.959174  0.0
C  C41  1  0.12479176  0.72969935  0.78484397  1  -0.095545  0.000991  3.726199  0.001  -0.115496  0.000213  3.97053  0.0  -0.116614  0.000121  3.990534  0.0  -0.087061  -0.114641  0.000362  3.957208  0.0
C  C42  1  0.62448120  0.47410040  0.22911097  1  -0.113877  -0.00058  3.736942  -0.001  -0.133599  -0.000162  3.983889  0.0  -0.135526  -0.000103  4.004434  0.0  -0.093887  -0.132087  -0.000262  3.970244  0.0
C  C43  1  0.39432747  0.52612744  0.77114242  1  -0.113856  0.000539  3.737535  0.0  -0.133585  0.000159  3.984642  0.0  -0.135534  0.000103  4.005225  0.0  -0.093856  -0.13205  0.000251  3.970956  0.0
C  C44  1  0.84174925  0.17942336  0.74977167  1  0.047113  -0.00263  3.744529  -0.002  0.062475  -9.1e-05  3.979712  0.0  0.061386  0.000432  4.003604  0.0  -0.017658  0.063344  -0.000758  3.963676  -0.001
C  C45  1  0.09059421  0.82021351  0.25022991  1  0.047632  0.003086  3.743941  0.003  0.063886  0.00015  3.977489  0.0  0.062744  -0.000409  4.001501  0.0  -0.01666  0.06479  0.000862  3.961372  0.001
C  C46  1  0.59414356  0.02952630  0.80939046  1  -0.058844  0.003955  3.757117  0.004  -0.068627  0.000681  4.003812  0.001  -0.070231  0.000724  4.02569  0.001  -0.089313  -0.067568  0.000693  3.989247  0.001
C  C47  1  0.78363285  0.97013397  0.19008538  1  -0.0586  -0.00396  3.755012  -0.004  -0.068153  -0.000693  4.002041  -0.001  -0.069779  -0.000734  4.023998  -0.001  -0.089392  -0.067071  -0.000705  3.987421  -0.001
C  C48  1  0.42269506  0.33063501  0.07817642  1  -0.08556  -0.000996  3.79298  -0.001  -0.098328  -0.00023  4.0353  0.0  -0.099971  -0.000137  4.056739  0.0  -0.095577  -0.097043  -0.000398  4.02048  0.0
C  C49  1  0.34373036  0.67011489  0.92193268  1  -0.086986  0.00125  3.794635  0.001  -0.099768  0.000265  4.037226  0.0  -0.101434  0.00015  4.058687  0.0  -0.096216  -0.098457  0.000462  4.022393  0.0
C  C50  1  0.66994767  0.06281234  0.73494869  1  -0.085465  -0.006137  3.688629  -0.006  -0.110624  -0.001886  3.940651  -0.002  -0.112146  -0.001406  3.960452  -0.001  -0.086484  -0.109392  -0.002531  3.926851  -0.002
C  C51  1  0.93330875  0.93674784  0.26472022  1  -0.085372  0.006239  3.68874  0.006  -0.111064  0.001944  3.940702  0.002  -0.112665  0.001435  3.96052  0.002  -0.086272  -0.109816  0.002591  3.926935  0.002
C  C52  1  0.93702505  0.26284445  0.83962352  1  -0.111618  -0.006057  3.746964  -0.006  -0.130472  -0.002082  3.990265  -0.002  -0.133521  -0.001516  4.013296  -0.002  -0.092787  -0.128288  -0.002749  3.974797  -0.003
C  C53  1  0.09646088  0.73677196  0.16044250  1  -0.111958  0.005867  3.749642  0.005  -0.131542  0.002048  3.992949  0.002  -0.134632  0.001495  4.01598  0.002  -0.093196  -0.129308  0.002711  3.977467  0.003
C  C54  1  0.58579698  0.44556866  0.13317224  1  -0.074989  0.000257  3.794958  0.0  -0.083767  6.5e-05  4.037506  0.0  -0.08595  7.1e-05  4.059247  0.0  -0.095499  -0.082156  9.2e-05  4.022845  0.0
C  C55  1  0.45160975  0.55493399  0.86708710  1  -0.075286  -0.000193  3.794337  0.0  -0.083914  -5.2e-05  4.036946  0.0  -0.086149  -6.8e-05  4.058688  0.0  -0.095474  -0.082305  -7.6e-05  4.022273  0.0
C  C56  1  0.68957262  0.11300511  0.89912471  1  -0.081559  -0.010247  3.792859  -0.009  -0.099391  -0.002344  4.043827  -0.002  -0.102562  -0.001559  4.067465  -0.002  -0.095665  -0.096896  -0.003356  4.027448  -0.003
C  C57  1  0.79037230  0.88686477  0.10042141  1  -0.081693  0.010508  3.790867  0.01  -0.099796  0.002406  4.041949  0.002  -0.102978  0.001588  4.065583  0.002  -0.095343  -0.097266  0.003434  4.025587  0.003
C  C58  1  0.30082196  0.24295222  0.11935133  1  -0.07814  0.000501  3.792019  0.001  -0.086544  6.9e-05  4.033826  0.0  -0.088858  6.6e-05  4.05485  0.0  -0.092868  -0.084885  0.0001  4.019577  0.0
C  C59  1  0.18076994  0.75774367  0.88057598  1  -0.076633  -0.000533  3.791531  -0.001  -0.084947  -6.8e-05  4.033064  0.0  -0.087219  -6.7e-05  4.054164  0.0  -0.091588  -0.083297  -9.5e-05  4.01874  0.0
C  C60  1  0.86019497  0.22982523  0.91424492  1  -0.086488  0.003789  3.808186  0.004  -0.096865  0.000759  4.056737  0.001  -0.09971  0.000773  4.080275  0.001  -0.098808  -0.094771  0.000764  4.040385  0.001
C  C61  1  0.94583687  0.76993431  0.08560954  1  -0.085392  -0.003545  3.807156  -0.004  -0.095618  -0.000742  4.055743  -0.001  -0.098453  -0.000771  4.079293  -0.001  -0.098164  -0.09352  -0.00073  4.03938  -0.001
O  O62  1  0.74408322  0.32562510  0.40432104  1  -0.594073  0.000973  2.167745  0.0  -0.556301  0.000282  2.421663  0.0  -0.573896  0.000503  2.401479  0.0  -0.407984  -0.54175  0.000122  2.434389  -0.001
O  O63  1  0.33859947  0.67414069  0.59576777  1  -0.592957  -0.000954  2.169297  0.0  -0.555836  -0.000289  2.42272  0.0  -0.57342  -0.00051  2.40225  0.0  -0.407875  -0.541165  -0.000124  2.43553  0.001
O  O64  1  0.34770572  0.29176818  0.46343380  1  -0.557765  -0.072471  2.047817  -0.096  -0.531382  -0.044757  2.323011  -0.065  -0.568517  -0.034488  2.312229  -0.053  -0.312906  -0.5049  -0.05097  2.330334  -0.071
O  O65  1  0.88296748  0.70828912  0.53664714  1  -0.557476  0.072431  2.047784  0.096  -0.531783  0.044731  2.322605  0.065  -0.568828  0.034441  2.311887  0.053  -0.3129  -0.505283  0.050976  2.329913  0.071
O  O66  1  0.14810967  0.44590117  0.38935978  1  -0.608949  -0.007664  2.076361  -0.01  -0.546867  -0.00437  2.301978  -0.006  -0.575476  -0.002658  2.292665  -0.004  -0.295218  -0.526666  -0.006835  2.307572  -0.009
O  O67  1  0.75753878  0.55409208  0.61066828  1  -0.60745  0.007614  2.078993  0.01  -0.545902  0.004333  2.304226  0.006  -0.57454  0.00263  2.294989  0.004  -0.294769  -0.525575  0.006801  2.309562  0.009
O  O68  1  0.89575928  0.05760313  0.51459368  1  -0.592163  -0.075636  2.118948  -0.101  -0.579852  -0.047876  2.417056  -0.069  -0.619946  -0.037218  2.402925  -0.056  -0.320594  -0.550626  -0.053384  2.426349  -0.075
O  O69  1  0.38069170  0.94205547  0.48561723  1  -0.590465  0.07577  2.120393  0.101  -0.578449  0.048105  2.417737  0.07  -0.618457  0.037396  2.403739  0.056  -0.319524  -0.549307  0.053629  2.427025  0.075
O  O70  1  0.12605574  0.98967916  0.63033048  1  -0.531361  0.0608  2.025456  0.082  -0.511195  0.042262  2.289134  0.063  -0.554005  0.033365  2.286533  0.052  -0.287839  -0.479593  0.045871  2.289683  0.065
O  O71  1  0.49487307  0.01008538  0.36989753  1  -0.53119  -0.061291  2.02742  -0.082  -0.510704  -0.042368  2.290609  -0.063  -0.553609  -0.033458  2.287942  -0.052  -0.287776  -0.479101  -0.046005  2.291187  -0.066
O  O72  1  0.72500658  0.28545901  0.61910053  1  -0.56517  -0.050243  2.192728  -0.068  -0.531447  -0.037219  2.463002  -0.055  -0.560152  -0.028938  2.44484  -0.045  -0.390596  -0.509569  -0.040958  2.473422  -0.057
O  O73  1  0.10487976  0.71428680  0.38097025  1  -0.566207  0.050167  2.192316  0.068  -0.533138  0.037169  2.462365  0.055  -0.561792  0.028907  2.444131  0.045  -0.391197  -0.511207  0.040848  2.473157  0.057
