# generated using pymatgen
data_Zn4H8C40Br8Cl4O13
_symmetry_space_group_name_H-M   'P 1'
_cell_length_a   23.98774535
_cell_length_b   23.98914245
_cell_length_c   23.98756571
_cell_angle_alpha   66.54025331
_cell_angle_beta   72.49150232
_cell_angle_gamma   107.51836190
_symmetry_Int_Tables_number   1
_chemical_formula_structural   Zn4H8C40Br8Cl4O13
_chemical_formula_sum   'Zn8 H16 C80 Br16 Cl8 O26'
_cell_volume   10587.34056513
_cell_formula_units_Z   2
loop_
 _symmetry_equiv_pos_site_id
 _symmetry_equiv_pos_as_xyz
  1  'x, y, z'
loop_
 _atom_site_type_symbol
 _atom_site_label
 _atom_site_symmetry_multiplicity
 _atom_site_fract_x
 _atom_site_fract_y
 _atom_site_fract_z
 _atom_site_occupancy
 _atom_site_pbe_bader_charge
 _atom_site_pbe_bader_spin_density
 _atom_site_pbe_cm5_charge
 _atom_site_pbe_ddec_charge
 _atom_site_pbe_ddec_spin_density
 _atom_site_pbe_ddec_sum_bond_order
 _atom_site_pbe_magmom
Zn  Zn0  1  0.05691285  0.95759257  0.48550753  1  1.323376  0  0.678662  0.983809  0  2.356419  0
Zn  Zn1  1  0.05691126  0.09932009  0.45759551  1  1.32254  0  0.678611  0.983811  0  2.356328  0
Zn  Zn2  1  0.94308173  0.98550349  0.45758479  1  1.32323  0  0.678606  0.983802  0  2.356391  0
Zn  Zn3  1  0.94310034  0.95758769  0.59932388  1  1.322776  0  0.678684  0.983802  0  2.356629  0
Zn  Zn4  1  0.94308894  0.54240795  0.01449343  1  1.323345  0  0.678695  0.983907  0  2.356395  0
Zn  Zn5  1  0.05692025  0.51449774  0.04241500  1  1.323403  0  0.67862  0.983794  0  2.356424  0
Zn  Zn6  1  0.94308812  0.40067842  0.04241075  1  1.322446  0  0.678623  0.983788  0  2.356423  0
Zn  Zn7  1  0.05689811  0.54240556  0.90067889  1  1.32264  0  0.678617  0.983736  0  2.356637  0
H  H8  1  0.92394908  0.71491314  0.17534087  1  0.113629  0  0.110006  0.128069  0  0.991916  0
H  H9  1  0.07603770  0.67532887  0.21495717  1  0.114017  0  0.109991  0.128093  0  0.991913  0
H  H10  1  0.92395109  0.82466121  0.28505601  1  0.113509  0  0.109986  0.12811  0  0.991892  0
H  H11  1  0.07598667  0.78500721  0.32473598  1  0.115419  0  0.110055  0.128267  0  0.991673  0
H  H12  1  0.07605367  0.40068098  0.70904601  1  0.094519  0  0.109945  0.127948  0  0.992072  0
H  H13  1  0.92396488  0.20900725  0.90072007  1  0.093464  0  0.109949  0.127984  0  0.991942  0
H  H14  1  0.07599149  0.29097903  0.59929820  1  0.09341  0  0.110041  0.128177  0  0.991837  0
H  H15  1  0.92395267  0.09928892  0.79098286  1  0.093704  0  0.109983  0.128025  0  0.992022  0
H  H16  1  0.60972892  0.40069968  0.17530986  1  0.103752  0  0.11008  0.128244  0  0.991868  0
H  H17  1  0.60972410  0.20901133  0.21496021  1  0.12782  0  0.109972  0.128013  0  0.992004  0
H  H18  1  0.39027636  0.29098881  0.28502758  1  0.128004  0  0.110007  0.128083  0  0.99193  0
H  H19  1  0.39026917  0.09931272  0.32461458  1  0.103476  0  0.109922  0.128021  0  0.992037  0
H  H20  1  0.39028507  0.67528891  0.90069842  1  0.104307  0  0.11007  0.128186  0  0.991807  0
H  H21  1  0.39025981  0.71494376  0.70900749  1  0.127276  0  0.109914  0.127999  0  0.991976  0
H  H22  1  0.60974114  0.78504472  0.79099183  1  0.127447  0  0.110013  0.128088  0  0.992027  0
H  H23  1  0.60971910  0.82463645  0.59931289  1  0.104055  0  0.109922  0.127967  0  0.992008  0
C  C24  1  0.18110610  0.09055830  0.40945342  1  1.586571  0  0.222077  0.619823  0  4.156336  0
C  C25  1  0.99999674  0.13693504  0.36306243  1  1.610003  0  0.230334  0.630679  0  4.128915  0
C  C26  1  0.99999266  0.90945104  0.40944709  1  1.609496  0  0.221905  0.61959  0  4.156134  0
C  C27  1  0.81889701  0.90944356  0.59056393  1  1.586972  0  0.222135  0.620073  0  4.156106  0
C  C28  1  0.00000393  0.86305972  0.63693859  1  1.610222  0  0.230426  0.631191  0  4.128555  0
C  C29  1  0.99999638  0.09054921  0.59055888  1  1.637623  0  0.2219  0.619495  0  4.15674  0
C  C30  1  0.00000283  0.59054210  0.09056049  1  1.610087  0  0.222119  0.619951  0  4.15627  0
C  C31  1  0.00000711  0.36306534  0.13693812  1  1.610341  0  0.230183  0.630794  0  4.128634  0
C  C32  1  0.81889344  0.40944194  0.09054336  1  1.587108  0  0.221924  0.619767  0  4.156147  0
C  C33  1  0.99998992  0.40943593  0.90945693  1  1.638281  0  0.222178  0.619986  0  4.15626  0
C  C34  1  0.99999688  0.63693690  0.86306185  1  1.609812  0  0.230395  0.630985  0  4.1285  0
C  C35  1  0.18110429  0.59054735  0.90943766  1  1.58691  0  0.221903  0.619562  0  4.156414  0
C  C36  1  0.00000246  0.80515790  0.69484023  1  0.056504  0  -0.014328  -0.121754  0  3.847899  0
C  C37  1  0.00000072  0.69484161  0.80515875  1  0.056272  0  -0.014246  -0.12163  0  3.847839  0
C  C38  1  0.95729923  0.77695067  0.76574608  1  0.117843  0  0.016978  0.077947  0  3.975348  0
C  C39  1  0.04270307  0.72304850  0.73425444  1  0.125989  0  0.017028  0.078003  0  3.975423  0
C  C40  1  0.95729974  0.72304463  0.81965335  1  0.124739  0  0.016994  0.077902  0  3.97554  0
C  C41  1  0.04270463  0.77695402  0.68034758  1  0.123686  0  0.016894  0.077873  0  3.975589  0
C  C42  1  0.99999986  0.19484060  0.30515922  1  0.056445  0  -0.014244  -0.121609  0  3.847879  0
C  C43  1  0.00000331  0.30515962  0.19484160  1  0.056109  0  -0.014248  -0.121578  0  3.847768  0
C  C44  1  0.95729860  0.18034869  0.27694553  1  0.124172  0  0.016861  0.0779  0  3.975529  0
C  C45  1  0.04270316  0.31965274  0.22305552  1  0.12367  0  0.016802  0.077835  0  3.975447  0
C  C46  1  0.95730207  0.23425766  0.22303840  1  0.126479  0  0.016951  0.077863  0  3.975389  0
C  C47  1  0.04270065  0.26574265  0.27696281  1  0.127476  0  0.017115  0.078133  0  3.975247  0
C  C48  1  0.00000058  0.62804373  0.12806553  1  0.065656  0  -0.01919  -0.132663  0  3.852161  0
C  C49  1  0.95749676  0.65817355  0.13593439  1  -0.161458  0  0.000403  0.124084  0  3.899272  0
C  C50  1  0.95735149  0.69283291  0.17064033  1  0.102004  0  -0.089654  -0.190098  0  3.933478  0
C  C51  1  0.99999175  0.69955577  0.19958325  1  0.078098  0  0.008909  0.181873  0  4.113294  0
C  C52  1  0.04263744  0.67062374  0.19286680  1  0.100106  0  -0.089571  -0.190026  0  3.933598  0
C  C53  1  0.04249955  0.63592160  0.15820485  1  -0.161318  0  0.00028  0.124004  0  3.899205  0
C  C54  1  0.99998625  0.73478111  0.23481414  1  -0.060771  0  -0.029615  -0.084794  0  4.070332  0
C  C55  1  0.99997756  0.76518088  0.26522343  1  -0.273804  0  -0.02946  -0.084367  0  4.070425  0
C  C56  1  0.99997326  0.80040482  0.30045493  1  0.077677  0  0.008933  0.181743  0  4.113809  0
C  C57  1  0.95734429  0.82935565  0.30715443  1  0.101923  0  -0.089633  -0.19017  0  3.933686  0
C  C58  1  0.95748651  0.86406316  0.34181211  1  -0.161309  0  0.000445  0.124198  0  3.898688  0
C  C59  1  0.99998204  0.87193084  0.37196026  1  0.065375  0  -0.019188  -0.132386  0  3.851602  0
C  C60  1  0.04246221  0.84177370  0.36411562  1  -0.160677  0  0.000393  0.12385  0  3.899123  0
C  C61  1  0.04259948  0.80710944  0.32941528  1  0.09905  0  -0.08989  -0.190394  0  3.93351  0
C  C62  1  0.00000176  0.37192831  0.87196026  1  0.039741  0  -0.019207  -0.132579  0  3.851967  0
C  C63  1  0.04251002  0.40655312  0.79932751  1  -0.137276  0  0.000308  0.123887  0  3.89907  0
C  C64  1  0.04265004  0.37198764  0.76452754  1  0.103866  0  -0.089524  -0.189711  0  3.933352  0
C  C65  1  0.00000303  0.30041235  0.80044625  1  0.089601  0  0.008713  0.181399  0  4.113994  0
C  C66  1  0.95736469  0.26449259  0.87202398  1  0.107151  0  -0.089573  -0.18976  0  3.933661  0
C  C67  1  0.95750664  0.29929482  0.90658496  1  -0.140161  0  0.000477  0.123979  0  3.899203  0
C  C68  1  0.99999413  0.26518818  0.76521661  1  -0.062839  0  -0.029495  -0.084533  0  4.070585  0
C  C69  1  0.99998295  0.23478877  0.73480774  1  -0.274671  0  -0.029493  -0.084524  0  4.070528  0
C  C70  1  0.99997688  0.19956740  0.69957626  1  0.089917  0  0.008907  0.181798  0  4.113802  0
C  C71  1  0.04260364  0.23549114  0.62799669  1  0.105954  0  -0.089787  -0.190099  0  3.933659  0
C  C72  1  0.04246523  0.20069142  0.59343156  1  -0.139267  0  0.000305  0.123678  0  3.899445  0
C  C73  1  0.99998367  0.12805542  0.62805859  1  0.040026  0  -0.019168  -0.132429  0  3.851901  0
C  C74  1  0.95748843  0.09342497  0.70069382  1  -0.138469  0  0.000378  0.124138  0  3.898799  0
C  C75  1  0.95734560  0.12798711  0.73549596  1  0.105931  0  -0.089618  -0.19012  0  3.933657  0
C  C76  1  0.74388671  0.37193587  0.12805431  1  0.07794  0  -0.019229  -0.132761  0  3.852083  0
C  C77  1  0.70588112  0.40656553  0.13591443  1  -0.166505  0  0.00035  0.123989  0  3.899523  0
C  C78  1  0.63651678  0.37200270  0.17061756  1  0.119669  0  -0.08989  -0.190538  0  3.933955  0
C  C79  1  0.60085789  0.30042315  0.19956588  1  0.109747  0  0.008888  0.181993  0  4.113426  0
C  C80  1  0.63651397  0.26449932  0.19286349  1  -0.044753  0  -0.089616  -0.18998  0  3.933429  0
C  C81  1  0.70587858  0.29930022  0.15820589  1  -0.037239  0  0.000382  0.124024  0  3.899084  0
C  C82  1  0.53040380  0.26519885  0.23478460  1  -0.351643  0  -0.029564  -0.084654  0  4.070606  0
C  C83  1  0.46959517  0.23480399  0.26517713  1  -0.029258  0  -0.029499  -0.084525  0  4.070661  0
C  C84  1  0.39914118  0.19958239  0.30039725  1  0.097055  0  0.008799  0.18146  0  4.113902  0
C  C85  1  0.36348616  0.23550310  0.30711599  1  -0.03197  0  -0.089763  -0.189969  0  3.933673  0
C  C86  1  0.29412223  0.20070235  0.34177958  1  -0.036987  0  0.000482  0.123909  0  3.899109  0
C  C87  1  0.25611265  0.12806838  0.37192300  1  0.077307  0  -0.019271  -0.132519  0  3.851914  0
C  C88  1  0.29411719  0.09344186  0.36403736  1  -0.165836  0  0.000354  0.123832  0  3.899025  0
C  C89  1  0.36348261  0.12800628  0.32932743  1  0.120018  0  -0.089401  -0.18967  0  3.933423  0
C  C90  1  0.25611257  0.62804408  0.87193286  1  0.078551  0  -0.019192  -0.13258  0  3.851924  0
C  C91  1  0.29412680  0.63589832  0.90656416  1  -0.166512  0  0.000283  0.123744  0  3.89964  0
C  C92  1  0.36349134  0.67060208  0.87199891  1  0.118717  0  -0.089754  -0.190027  0  3.933564  0
C  C93  1  0.39914331  0.69955458  0.80041784  1  0.109506  0  0.008944  0.181774  0  4.113469  0
C  C94  1  0.36347838  0.69284888  0.76449573  1  -0.043698  0  -0.089661  -0.190157  0  3.933468  0
C  C95  1  0.29411372  0.65818918  0.79929826  1  -0.037188  0  0.000438  0.124175  0  3.898882  0
C  C96  1  0.46959736  0.73477988  0.76519541  1  -0.35115  0  -0.029638  -0.084593  0  4.070447  0
C  C97  1  0.53040597  0.76518041  0.73480689  1  -0.029699  0  -0.029499  -0.084633  0  4.070368  0
C  C98  1  0.60086168  0.80040944  0.69958414  1  0.108986  0  0.008781  0.181607  0  4.113682  0
C  C99  1  0.63652407  0.80713127  0.73550562  1  -0.042987  0  -0.089677  -0.190017  0  3.933772  0
C  C100  1  0.70588808  0.84179549  0.70070274  1  -0.037538  0  0.000588  0.124125  0  3.899077  0
C  C101  1  0.74389073  0.87193225  0.62806974  1  0.077804  0  -0.019272  -0.132645  0  3.851873  0
C  C102  1  0.70587822  0.86405433  0.59344231  1  -0.166174  0  0.00033  0.123954  0  3.898978  0
C  C103  1  0.63651279  0.82934501  0.62800671  1  0.119373  0  -0.089471  -0.189779  0  3.9334  0
Br  Br104  1  0.89524043  0.65659066  0.10146927  1  -0.015841  0  0.026956  -0.050182  0  1.440003  0
Br  Br105  1  0.10475702  0.60147020  0.15663286  1  -0.01578  0  0.026969  -0.050177  0  1.439956  0
Br  Br106  1  0.89524372  0.89853341  0.34336635  1  -0.014743  0  0.026908  -0.050273  0  1.439985  0
Br  Br107  1  0.10468776  0.84331487  0.39861700  1  -0.014072  0  0.027084  -0.050001  0  1.44001  0
Br  Br108  1  0.10478431  0.50325690  0.73865738  1  -0.016725  0  0.027007  -0.050165  0  1.440021  0
Br  Br109  1  0.89526017  0.23861987  0.00329730  1  -0.016394  0  0.026979  -0.050108  0  1.43993  0
Br  Br110  1  0.10468934  0.26137697  0.49671550  1  -0.015987  0  0.027088  -0.05001  0  1.440005  0
Br  Br111  1  0.89524214  0.99671145  0.76136851  1  -0.016371  0  0.026946  -0.050207  0  1.439978  0
Br  Br112  1  0.74191593  0.50327839  0.10143814  1  -0.010847  0  0.027075  -0.049995  0  1.440099  0
Br  Br113  1  0.74191128  0.23861686  0.15666375  1  -0.01288  0  0.026988  -0.050108  0  1.4399  0
Br  Br114  1  0.25808994  0.26138142  0.34333913  1  -0.013831  0  0.026993  -0.050064  0  1.439872  0
Br  Br115  1  0.25808058  0.99673876  0.39846318  1  -0.013069  0  0.026949  -0.050186  0  1.440061  0
Br  Br116  1  0.25810444  0.60140797  0.00328023  1  -0.010969  0  0.027086  -0.050024  0  1.440142  0
Br  Br117  1  0.25806800  0.65663160  0.73861685  1  -0.013479  0  0.02692  -0.050199  0  1.439978  0
Br  Br118  1  0.74193277  0.84337123  0.76138058  1  -0.013593  0  0.026928  -0.050145  0  1.440011  0
Br  Br119  1  0.74190382  0.89850209  0.49673258  1  -0.012212  0  0.026942  -0.050232  0  1.439921  0
Cl  Cl120  1  0.90278915  0.80549563  0.79169954  1  -0.133898  0  0.002642  -0.038914  0  1.694723  0
Cl  Cl121  1  0.09721081  0.69449965  0.70830114  1  -0.133572  0  0.002621  -0.038951  0  1.694594  0
Cl  Cl122  1  0.90279326  0.69449378  0.90270895  1  -0.132255  0  0.002595  -0.039003  0  1.694808  0
Cl  Cl123  1  0.09721476  0.80551008  0.59729047  1  -0.139111  0  0.002629  -0.038968  0  1.694676  0
Cl  Cl124  1  0.90279067  0.09729464  0.30548661  1  -0.141138  0  0.002605  -0.039037  0  1.694737  0
Cl  Cl125  1  0.09720727  0.40270555  0.19451818  1  -0.141234  0  0.0027  -0.038955  0  1.694763  0
Cl  Cl126  1  0.90279598  0.20830539  0.19447624  1  -0.132965  0  0.00265  -0.038944  0  1.694633  0
Cl  Cl127  1  0.09720718  0.29169536  0.30552341  1  -0.133098  0  0.002597  -0.039035  0  1.694641  0
O  O128  1  0.99999747  0.00000071  0.50000203  1  -1.234385  0  -0.572458  -1.034766  0  2.529286  0
O  O129  1  0.15183221  0.02568929  0.43452138  1  -1.164821  0  -0.313896  -0.542511  0  2.44304  0
O  O130  1  0.03963603  0.15417558  0.38545236  1  -1.164962  0  -0.312929  -0.541649  0  2.450579  0
O  O131  1  0.96015689  0.93447632  0.41369102  1  -1.16644  0  -0.313912  -0.542565  0  2.442486  0
O  O132  1  0.15183379  0.12614927  0.41368188  1  -1.166979  0  -0.314007  -0.542683  0  2.4428  0
O  O133  1  0.03983972  0.91371240  0.43446423  1  -1.165929  0  -0.313802  -0.542461  0  2.442946  0
O  O134  1  0.96035470  0.07491327  0.38545263  1  -1.1672  0  -0.312794  -0.541514  0  2.450366  0
O  O135  1  0.84816562  0.93450191  0.52569479  1  -1.164825  0  -0.313809  -0.542624  0  2.442799  0
O  O136  1  0.96038324  0.88546157  0.65418192  1  -1.164868  0  -0.312874  -0.541752  0  2.450352  0
O  O137  1  0.84817387  0.91366405  0.62615740  1  -1.167377  0  -0.314172  -0.542789  0  2.442843  0
O  O138  1  0.03962443  0.88543881  0.57491670  1  -1.167616  0  -0.312924  -0.541873  0  2.450578  0
O  O139  1  0.03982379  0.12613902  0.52569676  1  -1.178264  0  -0.313791  -0.542425  0  2.443113  0
O  O140  1  0.96018020  0.02568443  0.62614851  1  -1.178574  0  -0.313915  -0.542445  0  2.442973  0
O  O141  1  0.00000099  0.49999793  0.00000155  1  -1.234225  0  -0.572437  -1.034752  0  2.529358  0
O  O142  1  0.96018438  0.58631513  0.06550844  1  -1.16636  0  -0.313863  -0.542629  0  2.442984  0
O  O143  1  0.03965779  0.42508801  0.11453857  1  -1.167662  0  -0.312575  -0.541398  0  2.450114  0
O  O144  1  0.84816586  0.37385369  0.08630086  1  -1.167152  0  -0.313923  -0.542604  0  2.4426  0
O  O145  1  0.03982240  0.56549647  0.08633773  1  -1.166749  0  -0.314104  -0.542726  0  2.442795  0
O  O146  1  0.84816802  0.47430538  0.06550533  1  -1.165162  0  -0.313783  -0.542449  0  2.442948  0
O  O147  1  0.96035988  0.34582413  0.11455781  1  -1.164733  0  -0.312941  -0.541806  0  2.450593  0
O  O148  1  0.96018014  0.37384404  0.97432220  1  -1.178929  0  -0.314091  -0.542723  0  2.44291  0
O  O149  1  0.03962318  0.61454225  0.84582009  1  -1.16495  0  -0.312976  -0.541757  0  2.450441  0
O  O150  1  0.03978866  0.47430814  0.87385849  1  -1.178502  0  -0.313914  -0.542601  0  2.442919  0
O  O151  1  0.96036564  0.61454812  0.92508569  1  -1.167059  0  -0.312802  -0.541659  0  2.450296  0
O  O152  1  0.15183743  0.56552186  0.97429991  1  -1.164814  0  -0.313828  -0.542353  0  2.442908  0
O  O153  1  0.15182511  0.58630691  0.87384989  1  -1.16736  0  -0.313959  -0.542626  0  2.442873  0
