# generated using pymatgen
data_MnH24C24S2(N5O)2
_symmetry_space_group_name_H-M   'P 1'
_cell_length_a   6.91621604
_cell_length_b   11.69190519
_cell_length_c   17.01335929
_cell_angle_alpha   89.99773413
_cell_angle_beta   90.00651823
_cell_angle_gamma   95.26116883
_symmetry_Int_Tables_number   1
_chemical_formula_structural   MnH24C24S2(N5O)2
_chemical_formula_sum   'Mn2 H48 C48 S4 N20 O4'
_cell_volume   1369.96789499
_cell_formula_units_Z   2
loop_
 _symmetry_equiv_pos_site_id
 _symmetry_equiv_pos_as_xyz
  1  'x, y, z'
loop_
 _atom_site_type_symbol
 _atom_site_label
 _atom_site_symmetry_multiplicity
 _atom_site_fract_x
 _atom_site_fract_y
 _atom_site_fract_z
 _atom_site_occupancy
 _atom_site_pbe_cm5_charge
 _atom_site_pbe_ddec_charge
 _atom_site_pbe_ddec_spin_density
 _atom_site_pbe_ddec_sum_bond_order
 _atom_site_pbe_magmom
Mn  Mn0  1  0.99999254  0.00000322  0.00000154  1  0.851913  0.968162  3.547545  3.111165  3.391
Mn  Mn1  1  0.00000495  0.50000046  0.50000021  1  0.852042  0.968252  3.547403  3.111308  3.391
H  H2  1  0.14112741  0.92387562  0.84829045  1  0.28195  0.273417  0.000976  1.087322  0.002
H  H3  1  0.85887465  0.57613305  0.34830545  1  0.281979  0.273487  0.000978  1.087103  0.002
H  H4  1  0.85886323  0.07612673  0.15171092  1  0.281942  0.273431  0.000976  1.087297  0.002
H  H5  1  0.14112385  0.42386334  0.65169416  1  0.281985  0.273443  0.000978  1.087156  0.002
H  H6  1  0.32439711  0.79484388  0.96121540  1  0.088579  0.08709  0.000158  1.022296  0.0
H  H7  1  0.67555796  0.70515265  0.46120421  1  0.088637  0.087206  0.000158  1.022148  0.0
H  H8  1  0.67559776  0.20515764  0.03878421  1  0.088587  0.087122  0.000158  1.022207  0.0
H  H9  1  0.32442803  0.29483680  0.53879657  1  0.088597  0.087108  0.000158  1.022153  0.0
H  H10  1  0.46664770  0.92630741  0.93907960  1  0.090118  0.091599  0.000446  1.018519  0.001
H  H11  1  0.53332808  0.57367392  0.43906481  1  0.090135  0.091689  0.000447  1.018409  0.001
H  H12  1  0.53334016  0.07369577  0.06092178  1  0.090124  0.091597  0.000446  1.018456  0.001
H  H13  1  0.46666769  0.42631301  0.56093480  1  0.090109  0.091545  0.000447  1.018438  0.001
H  H14  1  0.39408458  0.82876988  0.86178939  1  0.088357  0.081351  0.001332  1.01158  0.001
H  H15  1  0.60587238  0.67121987  0.36176531  1  0.088361  0.081418  0.001335  1.011443  0.001
H  H16  1  0.60590931  0.17123506  0.13821198  1  0.088321  0.081326  0.001333  1.011537  0.001
H  H17  1  0.39411662  0.32877045  0.63823429  1  0.088315  0.081346  0.001335  1.011501  0.001
H  H18  1  0.25980947  0.11621132  0.87908129  1  0.114982  0.078365  -0.000302  1.054196  0.0
H  H19  1  0.74017798  0.38378590  0.37906938  1  0.114959  0.078372  -0.0003  1.054232  0.0
H  H20  1  0.74018082  0.88378844  0.12092126  1  0.114975  0.078376  -0.000302  1.054188  0.0
H  H21  1  0.25981869  0.61621820  0.62093199  1  0.114963  0.078397  -0.0003  1.054243  0.0
H  H22  1  0.45767496  0.30460616  0.86327867  1  0.106948  0.119674  0.000274  1.009873  0.0
H  H23  1  0.54231461  0.19538577  0.36328565  1  0.106944  0.119647  0.000275  1.009929  0.0
H  H24  1  0.54232718  0.69538511  0.13672035  1  0.106967  0.119652  0.000274  1.0099  0.0
H  H25  1  0.45769328  0.80461583  0.63671455  1  0.106957  0.119676  0.000275  1.009807  0.0
H  H26  1  0.32379495  0.37817142  0.10551120  1  0.100874  0.113681  -0.000387  1.050164  0.0
H  H27  1  0.67628559  0.12182387  0.60551707  1  0.100864  0.113611  -0.000387  1.050216  0.0
H  H28  1  0.67621630  0.62183364  0.89448723  1  0.100884  0.113644  -0.000387  1.050134  0.0
H  H29  1  0.32372242  0.87817859  0.39448430  1  0.100876  0.113637  -0.000387  1.050174  0.0
H  H30  1  0.13218797  0.18697067  0.11087809  1  0.120002  0.087059  -0.000313  1.02822  0.0
H  H31  1  0.86787076  0.31302338  0.61089292  1  0.120029  0.087268  -0.000313  1.027789  0.0
H  H32  1  0.86781820  0.81303950  0.88912270  1  0.119973  0.087043  -0.000313  1.028064  0.0
H  H33  1  0.13213424  0.68697820  0.38910728  1  0.120007  0.08726  -0.000313  1.02782  0.0
H  H34  1  0.84712130  0.78731833  0.61017354  1  0.112829  0.128233  -6.7e-05  1.012252  0.0
H  H35  1  0.15290357  0.71267351  0.11019130  1  0.112898  0.128337  -6.7e-05  1.012194  0.0
H  H36  1  0.15289926  0.21268077  0.38982078  1  0.112828  0.128194  -6.7e-05  1.012419  0.0
H  H37  1  0.84708550  0.28732797  0.88980420  1  0.112897  0.12828  -6.7e-05  1.012374  0.0
H  H38  1  0.92778795  0.77199987  0.75322557  1  0.10421  0.06915  0.000258  1.038991  0.0
H  H39  1  0.07223979  0.72801916  0.25322445  1  0.104199  0.069007  0.000258  1.038942  0.0
H  H40  1  0.07220981  0.22800167  0.24677110  1  0.10421  0.069097  0.000258  1.039009  0.0
H  H41  1  0.92775171  0.27197890  0.74677222  1  0.104231  0.068987  0.000258  1.038874  0.0
H  H42  1  0.24398506  0.09140431  0.75106245  1  0.105804  0.077173  0.000506  1.023116  0.0
H  H43  1  0.75597538  0.40862325  0.25106412  1  0.105769  0.077215  0.000506  1.023183  0.0
H  H44  1  0.75600738  0.90860062  0.24893951  1  0.105803  0.077175  0.000506  1.023207  0.0
H  H45  1  0.24404256  0.59136726  0.74893608  1  0.105808  0.077203  0.000506  1.023277  0.0
H  H46  1  0.17640754  0.11881839  0.60738576  1  0.113251  0.124182  1.7e-05  1.020102  0.0
H  H47  1  0.82358108  0.38118823  0.10740778  1  0.113217  0.124086  1.7e-05  1.020419  0.0
H  H48  1  0.82359503  0.88118661  0.39261502  1  0.113265  0.12422  1.7e-05  1.020149  0.0
H  H49  1  0.17643397  0.61880226  0.89259065  1  0.113225  0.124123  1.7e-05  1.020346  0.0
C  C50  1  0.24153363  0.93483828  0.14432466  1  0.164489  0.281268  0.024096  4.314899  0.022
C  C51  1  0.75854636  0.56514898  0.64432064  1  0.164571  0.281325  0.024111  4.314788  0.022
C  C52  1  0.75846437  0.06516497  0.85568023  1  0.164564  0.281376  0.024101  4.314909  0.022
C  C53  1  0.24145516  0.43484828  0.35567544  1  0.164513  0.281251  0.024123  4.31465  0.022
C  C54  1  0.34869566  0.86447250  0.91796958  1  -0.156329  -0.119614  0.003787  3.943528  0.003
C  C55  1  0.65128534  0.63551580  0.41795917  1  -0.156366  -0.119731  0.003798  3.942664  0.003
C  C56  1  0.65129654  0.13553071  0.08203120  1  -0.156235  -0.11949  0.003787  3.943282  0.003
C  C57  1  0.34870656  0.36447454  0.58204102  1  -0.156208  -0.119391  0.003798  3.942694  0.003
C  C58  1  0.27606975  0.17782906  0.92691441  1  0.040324  0.083338  -0.013425  3.959191  -0.002
C  C59  1  0.72392680  0.32216954  0.42690755  1  0.040276  0.083378  -0.013427  3.959107  -0.002
C  C60  1  0.72391475  0.82217067  0.07308755  1  0.040357  0.083458  -0.013436  3.959104  -0.002
C  C61  1  0.27607831  0.67783289  0.57309323  1  0.040234  0.083254  -0.013435  3.959314  -0.002
C  C62  1  0.38652394  0.28152294  0.91894594  1  -0.084423  -0.201297  -0.042461  3.950622  -0.023
C  C63  1  0.61348700  0.21847010  0.41895559  1  -0.084408  -0.201361  -0.042444  3.951232  -0.023
C  C64  1  0.61346948  0.71847856  0.08105250  1  -0.084436  -0.201351  -0.042454  3.950957  -0.023
C  C65  1  0.38651765  0.78152890  0.58104402  1  -0.084379  -0.201331  -0.042436  3.951195  -0.023
C  C66  1  0.40246617  0.35941538  0.98252586  1  0.102544  0.209739  -0.02461  4.066378  -0.009
C  C67  1  0.59755197  0.14058607  0.48252340  1  0.102614  0.209956  -0.024581  4.066497  -0.009
C  C68  1  0.59753715  0.64058447  0.01747316  1  0.102542  0.209723  -0.02463  4.066362  -0.009
C  C69  1  0.40245725  0.85941469  0.51747739  1  0.102567  0.209897  -0.024593  4.066502  -0.009
C  C70  1  0.31193887  0.32256522  0.05412912  1  -0.087642  -0.199811  -0.049217  3.933876  -0.028
C  C71  1  0.68810695  0.17743896  0.55413343  1  -0.087782  -0.199973  -0.049243  3.934039  -0.028
C  C72  1  0.68807128  0.67744240  0.94586990  1  -0.08771  -0.199797  -0.049214  3.934073  -0.028
C  C73  1  0.31189526  0.82256346  0.44586677  1  -0.087771  -0.199979  -0.049245  3.93403  -0.028
C  C74  1  0.20555905  0.21735786  0.05737848  1  0.044141  0.092034  -0.002112  3.947437  0.005
C  C75  1  0.79448175  0.28264529  0.55738074  1  0.044145  0.091919  -0.002098  3.947356  0.005
C  C76  1  0.79443558  0.78264193  0.94262466  1  0.044174  0.092039  -0.002121  3.947664  0.005
C  C77  1  0.20551925  0.71735884  0.44262005  1  0.044162  0.091945  -0.002102  3.947426  0.005
C  C78  1  0.00627537  0.95413520  0.59867305  1  0.10693  0.199668  -0.001337  4.028718  0.0
C  C79  1  0.99373476  0.54586735  0.09867870  1  0.106953  0.199936  -0.001333  4.028643  0.0
C  C80  1  0.99373275  0.04586812  0.40132480  1  0.106924  0.199664  -0.001335  4.028967  0.0
C  C81  1  0.00627000  0.45413252  0.90131797  1  0.106932  0.199741  -0.001333  4.028781  0.0
C  C82  1  0.93423315  0.85617698  0.64025863  1  -0.070646  -0.175454  -0.004353  3.910216  -0.002
C  C83  1  0.06576215  0.64381248  0.14026834  1  -0.070636  -0.175733  -0.00434  3.910865  -0.002
C  C84  1  0.06577787  0.14382635  0.35974039  1  -0.070633  -0.175517  -0.004353  3.910394  -0.002
C  C85  1  0.93423033  0.35618215  0.85973009  1  -0.070667  -0.175674  -0.004341  3.910664  -0.002
C  C86  1  0.98050606  0.84805623  0.71952165  1  0.044804  0.089743  0.000618  3.966348  0.001
C  C87  1  0.01949181  0.65196066  0.21951840  1  0.044913  0.090076  0.000617  3.96611  0.001
C  C88  1  0.01949327  0.15194618  0.28047384  1  0.044811  0.089824  0.000618  3.966309  0.001
C  C89  1  0.98051162  0.34804005  0.78047591  1  0.044856  0.090027  0.000616  3.966147  0.001
C  C90  1  0.15554390  0.02631863  0.71772572  1  0.042155  0.090796  -0.002519  3.975972  -0.001
C  C91  1  0.84441762  0.47371041  0.21773089  1  0.04211  0.090576  -0.002522  3.975785  -0.001
C  C92  1  0.84445143  0.97368632  0.28227272  1  0.042185  0.09067  -0.002519  3.975998  -0.001
C  C93  1  0.15559789  0.52628352  0.78226695  1  0.04199  0.090456  -0.002523  3.975704  -0.001
C  C94  1  0.11843413  0.04202831  0.63864090  1  -0.075312  -0.182139  -0.007761  3.918252  -0.004
C  C95  1  0.88155667  0.45798381  0.13864824  1  -0.075206  -0.181977  -0.007752  3.918233  -0.004
C  C96  1  0.88156543  0.95797581  0.36136165  1  -0.075224  -0.182011  -0.00776  3.918157  -0.004
C  C97  1  0.11844813  0.54200576  0.86135196  1  -0.075123  -0.181832  -0.007746  3.918337  -0.004
S  S98  1  0.35845110  0.91797644  0.22419603  1  -0.129976  -0.281958  0.050623  2.273907  0.038
S  S99  1  0.64159857  0.58203972  0.72417140  1  -0.130211  -0.282183  0.05065  2.273678  0.038
S  S100  1  0.64154012  0.08203020  0.77580710  1  -0.13  -0.281984  0.050631  2.273645  0.038
S  S101  1  0.35839919  0.41796182  0.27582586  1  -0.130133  -0.282091  0.050665  2.273824  0.038
N  N102  1  0.15397897  0.94640884  0.08487507  1  -0.422019  -0.487887  -0.00894  3.35511  -0.023
N  N103  1  0.84609850  0.55355357  0.58488719  1  -0.421949  -0.487778  -0.008942  3.355237  -0.023
N  N104  1  0.84601202  0.05359608  0.91513042  1  -0.422067  -0.488017  -0.008939  3.355596  -0.023
N  N105  1  0.15389757  0.44644623  0.41511301  1  -0.421927  -0.487754  -0.008945  3.355076  -0.023
N  N106  1  0.18190430  0.14564750  0.99447662  1  -0.345344  -0.230599  -0.089892  3.563543  -0.084
N  N107  1  0.81811262  0.35435256  0.49447621  1  -0.345271  -0.230617  -0.089896  3.563587  -0.084
N  N108  1  0.81809068  0.85435488  0.00552475  1  -0.34537  -0.23069  -0.089912  3.563479  -0.084
N  N109  1  0.18188804  0.64564899  0.50552399  1  -0.345249  -0.230593  -0.089903  3.563484  -0.084
N  N110  1  0.50162234  0.46540883  0.96994778  1  -0.188055  -0.188292  -0.146696  3.297338  -0.102
N  N111  1  0.49838694  0.03459569  0.46994537  1  -0.188028  -0.188425  -0.146726  3.296892  -0.102
N  N112  1  0.49838664  0.53459020  0.03004889  1  -0.187986  -0.1882  -0.14666  3.297337  -0.102
N  N113  1  0.50162216  0.96540420  0.53005483  1  -0.188063  -0.188244  -0.146705  3.296914  -0.102
N  N114  1  0.96490355  0.95479595  0.51744039  1  -0.135424  -0.115155  -0.015241  3.250559  -0.01
N  N115  1  0.03511803  0.54519051  0.01744198  1  -0.135318  -0.115025  -0.015221  3.250892  -0.01
N  N116  1  0.03511036  0.04520740  0.48255804  1  -0.135243  -0.114698  -0.01524  3.250324  -0.01
N  N117  1  0.96488181  0.45480503  0.98255528  1  -0.135366  -0.114975  -0.01522  3.250852  -0.01
N  N118  1  0.09064886  0.93086814  0.75765922  1  -0.30547  -0.224514  -0.005246  3.443434  -0.004
N  N119  1  0.90933033  0.56916753  0.25766148  1  -0.305611  -0.224589  -0.005235  3.442689  -0.004
N  N120  1  0.90934636  0.06913595  0.24234156  1  -0.305562  -0.224474  -0.005242  3.443626  -0.004
N  N121  1  0.09067326  0.43082374  0.74233754  1  -0.305501  -0.224359  -0.00523  3.442916  -0.004
O  O122  1  0.17424570  0.91936320  0.90752650  1  -0.398769  -0.455147  0.057964  2.561886  0.052
O  O123  1  0.82576756  0.58062834  0.40754100  1  -0.398792  -0.455358  0.058005  2.561686  0.052
O  O124  1  0.82574748  0.08063659  0.09247487  1  -0.398833  -0.455283  0.057972  2.561982  0.052
O  O125  1  0.17423228  0.41936720  0.59245743  1  -0.398808  -0.455337  0.058009  2.561742  0.052
