# generated using pymatgen
data_AlH9C21(BrO2)3
_symmetry_space_group_name_H-M   'P 1'
_cell_length_a   3.99100166
_cell_length_b   24.61075487
_cell_length_c   24.60890918
_cell_angle_alpha   119.99180718
_cell_angle_beta   90.00464993
_cell_angle_gamma   89.99572186
_symmetry_Int_Tables_number   1
_chemical_formula_structural   AlH9C21(BrO2)3
_chemical_formula_sum   'Al2 H18 C42 Br6 O12'
_cell_volume   2093.46490073
_cell_formula_units_Z   2
loop_
 _symmetry_equiv_pos_site_id
 _symmetry_equiv_pos_as_xyz
  1  'x, y, z'
loop_
 _atom_site_type_symbol
 _atom_site_label
 _atom_site_symmetry_multiplicity
 _atom_site_fract_x
 _atom_site_fract_y
 _atom_site_fract_z
 _atom_site_occupancy
 _atom_site_pbe_bader_charge
 _atom_site_pbe_bader_spin_density
 _atom_site_pbe_cm5_charge
 _atom_site_pbe_ddec_charge
 _atom_site_pbe_ddec_spin_density
 _atom_site_pbe_ddec_sum_bond_order
 _atom_site_pbe_magmom
Al  Al0  1  0.99015561  0.50001117  0.50000798  1  2.507593  0  0.424864  1.60747  0  2.563623  0
Al  Al1  1  0.99034018  0.16666436  0.83333364  1  2.50733  0  0.424772  1.60795  0  2.563096  0
H  H2  1  0.32650818  0.43602003  0.73085332  1  0.101472  0  0.101863  0.112604  0  1.010895  0
H  H3  1  0.32656396  0.23061686  0.60245110  1  0.101083  0  0.101859  0.112756  0  1.010707  0
H  H4  1  0.70476245  0.32565603  0.82312300  1  0.093552  0  0.111881  0.118239  0  0.984838  0
H  H5  1  0.70798186  0.38989670  0.77072320  1  0.079863  0  0.104142  0.108113  0  0.995487  0
H  H6  1  0.70467869  0.34102036  0.51018979  1  0.093938  0  0.111881  0.118188  0  0.984584  0
H  H7  1  0.70791131  0.27676313  0.56259560  1  0.080502  0  0.104095  0.108067  0  0.996065  0
H  H8  1  0.32638754  0.79483982  0.56398254  1  0.073391  0  0.101969  0.112859  0  1.010889  0
H  H9  1  0.32658632  0.87185586  0.76938506  1  0.072131  0  0.101793  0.112723  0  1.010737  0
H  H10  1  0.70479949  0.99746623  0.67433341  1  0.094773  0  0.111881  0.118241  0  0.98469  0
H  H11  1  0.70794395  0.88083613  0.61009787  1  0.062519  0  0.104105  0.108117  0  0.995781  0
H  H12  1  0.70474634  0.66918404  0.65898201  1  0.094941  0  0.111945  0.11834  0  0.984824  0
H  H13  1  0.70805390  0.78583263  0.72323564  1  0.062326  0  0.104036  0.10793  0  0.995859  0
H  H14  1  0.32648450  0.26914830  0.20517686  1  0.053673  0  0.101831  0.112706  0  1.010933  0
H  H15  1  0.32651808  0.39751956  0.12815505  1  0.054038  0  0.101812  0.112547  0  1.010696  0
H  H16  1  0.70483409  0.17687108  0.00254500  1  0.108544  0  0.111795  0.118049  0  0.984604  0
H  H17  1  0.70798413  0.22924960  0.11917420  1  0.073925  0  0.104093  0.108  0  0.995979  0
H  H18  1  0.70474549  0.48978019  0.33081803  1  0.108813  0  0.112003  0.118388  0  0.984837  0
H  H19  1  0.70806751  0.43738548  0.21415954  1  0.074368  0  0.104111  0.108083  0  0.995686  0
C  C20  1  0.49245533  0.44797347  0.40374217  1  1.604808  0  0.274112  0.665497  0  4.054234  0
C  C21  1  0.49250910  0.45576477  0.55202533  1  1.605296  0  0.274158  0.665592  0  4.054472  0
C  C22  1  0.49244364  0.59627286  0.54424817  1  1.589787  0  0.274105  0.66554  0  4.054252  0
C  C23  1  0.49255489  0.21090461  0.78132285  1  1.604349  0  0.274315  0.665782  0  4.05294  0
C  C24  1  0.49263036  0.07041885  0.78909232  1  1.589892  0  0.274425  0.665711  0  4.052839  0
C  C25  1  0.49262118  0.21867340  0.92958302  1  1.606284  0  0.274493  0.665841  0  4.052934  0
C  C26  1  0.49940129  0.42288760  0.58901802  1  0.041814  0  -0.013656  -0.087473  0  3.929658  0
C  C27  1  0.49948128  0.24378343  0.74431879  1  0.04169  0  -0.01372  -0.087392  0  3.928209  0
C  C28  1  0.39415828  0.44913821  0.65166633  1  -0.124353  0  -0.005325  0.111767  0  3.936822  0
C  C29  1  0.40765172  0.41434541  0.68215721  1  0.029355  0  -0.09584  -0.190665  0  3.968297  0
C  C30  1  0.39414307  0.21751572  0.68165627  1  -0.122676  0  -0.005315  0.111651  0  3.936346  0
C  C31  1  0.40766290  0.25230974  0.65115935  1  0.028461  0  -0.095976  -0.190924  0  3.968604  0
C  C32  1  0.61626904  0.30602935  0.77502491  1  -0.029867  0  -0.075206  -0.066501  0  3.967025  0
C  C33  1  0.61756645  0.34163633  0.74565696  1  0.01889  0  -0.091795  -0.140874  0  3.989338  0
C  C34  1  0.61617394  0.36064123  0.55829982  1  -0.029838  0  -0.075276  -0.066568  0  3.96671  0
C  C35  1  0.61755255  0.32500821  0.58764831  1  0.016728  0  -0.091599  -0.140691  0  3.989128  0
C  C36  1  0.51437914  0.35166800  0.65042955  1  -0.056688  0  -0.000907  0.09112  0  3.99747  0
C  C37  1  0.51442825  0.31496141  0.68288230  1  -0.137267  0  -0.000881  0.091074  0  3.998765  0
C  C38  1  0.49934540  0.66614008  0.57712400  1  0.070308  0  -0.013688  -0.087233  0  3.929591  0
C  C39  1  0.49947452  0.00054224  0.75621940  1  0.070836  0  -0.013843  -0.087526  0  3.928631  0
C  C40  1  0.39402352  0.70253564  0.55086190  1  -0.08392  0  -0.005308  0.111656  0  3.936476  0
C  C41  1  0.40754172  0.76782404  0.58566428  1  0.014514  0  -0.095964  -0.191086  0  3.968538  0
C  C42  1  0.39418205  0.96414967  0.78247816  1  -0.084015  0  -0.005234  0.111862  0  3.93661  0
C  C43  1  0.40768714  0.89886782  0.74769852  1  0.014388  0  -0.096019  -0.190975  0  3.968316  0
C  C44  1  0.61626430  0.96899824  0.69396826  1  -0.043186  0  -0.07525  -0.066618  0  3.966492  0
C  C45  1  0.61755163  0.90402377  0.65835185  1  -0.020506  0  -0.091632  -0.14069  0  3.989088  0
C  C46  1  0.61623826  0.69766616  0.63936355  1  -0.043402  0  -0.075318  -0.066849  0  3.966891  0
C  C47  1  0.61758936  0.76264299  0.67498329  1  -0.019753  0  -0.09163  -0.140516  0  3.988789  0
C  C48  1  0.51435214  0.79876536  0.64832731  1  -0.071397  0  -0.00084  0.091236  0  3.997913  0
C  C49  1  0.51438704  0.86792704  0.68502891  1  0.010494  0  -0.000841  0.091013  0  3.997917  0
C  C50  1  0.49938300  0.41097671  0.33387227  1  -0.013057  0  -0.013652  -0.08713  0  3.929125  0
C  C51  1  0.49946199  0.25567449  0.99946160  1  -0.013057  0  -0.013775  -0.087571  0  3.928639  0
C  C52  1  0.39407230  0.34832334  0.29748367  1  -0.091826  0  -0.0053  0.111637  0  3.936278  0
C  C53  1  0.40761940  0.31783894  0.23219635  1  0.088851  0  -0.096138  -0.191167  0  3.96852  0
C  C54  1  0.39413444  0.31832701  0.03585627  1  -0.090982  0  -0.005427  0.111561  0  3.936469  0
C  C55  1  0.40765824  0.34881202  0.10114303  1  0.089081  0  -0.095727  -0.190353  0  3.968584  0
C  C56  1  0.61627022  0.22497695  0.03101437  1  -0.148216  0  -0.075176  -0.066386  0  3.96697  0
C  C57  1  0.61758425  0.25432101  0.09599129  1  0.064996  0  -0.091545  -0.140481  0  3.989281  0
C  C58  1  0.61627610  0.44168583  0.30234411  1  -0.147102  0  -0.075532  -0.067001  0  3.967565  0
C  C59  1  0.61763058  0.41233139  0.23736294  1  0.064198  0  -0.091704  -0.14081  0  3.9884  0
C  C60  1  0.51442220  0.34955377  0.20124147  1  -0.073984  0  -0.000735  0.091418  0  3.99734  0
C  C61  1  0.51441085  0.31709199  0.13208325  1  0.019499  0  -0.001057  0.090714  0  3.998744  0
Br  Br62  1  0.24262650  0.53339439  0.70039015  1  -0.048098  0  0.020959  -0.066118  0  1.4802  0
Br  Br63  1  0.24263563  0.13328166  0.63295765  1  -0.047963  0  0.021112  -0.065922  0  1.481209  0
Br  Br64  1  0.24236565  0.66700098  0.46662035  1  -0.047633  0  0.021078  -0.065917  0  1.480901  0
Br  Br65  1  0.24265288  0.99969995  0.86672949  1  -0.047497  0  0.021009  -0.066075  0  1.480833  0
Br  Br66  1  0.24252147  0.29961135  0.33301696  1  -0.045285  0  0.021168  -0.065885  0  1.481035  0
Br  Br67  1  0.24257840  0.36702652  0.00030560  1  -0.045427  0  0.021042  -0.066012  0  1.481116  0
O  O68  1  0.72508415  0.56974056  0.55821702  1  -1.254487  0  -0.237029  -0.595895  0  2.365922  0
O  O69  1  0.72507033  0.48847291  0.43027108  1  -1.258405  0  -0.237178  -0.596124  0  2.365876  0
O  O70  1  0.72512853  0.44179973  0.51152851  1  -1.25711  0  -0.23718  -0.596057  0  2.365893  0
O  O71  1  0.25428055  0.56771600  0.50617633  1  -1.261372  0  -0.234909  -0.595818  0  2.430179  0
O  O72  1  0.25435657  0.49383398  0.56153414  1  -1.248635  0  -0.234738  -0.595519  0  2.430593  0
O  O73  1  0.25429617  0.43846373  0.43229707  1  -1.248  0  -0.234702  -0.595424  0  2.43033  0
O  O74  1  0.72531544  0.17818200  0.90307219  1  -1.259034  0  -0.237349  -0.596335  0  2.36525  0
O  O75  1  0.72525974  0.22487862  0.82181896  1  -1.256029  0  -0.237274  -0.596375  0  2.365173  0
O  O76  1  0.72528407  0.09693899  0.77511382  1  -1.254416  0  -0.237245  -0.596203  0  2.365297  0
O  O77  1  0.25440870  0.22818885  0.90102793  1  -1.248661  0  -0.234758  -0.59556  0  2.430635  0
O  O78  1  0.25442181  0.09896793  0.82715796  1  -1.261534  0  -0.234794  -0.595641  0  2.430588  0
O  O79  1  0.25435081  0.17284134  0.77180469  1  -1.248613  0  -0.23472  -0.59568  0  2.43065  0
