# generated using pymatgen
data_MnH14C20N2O9
_symmetry_space_group_name_H-M   'P 1'
_cell_length_a   8.54706299
_cell_length_b   12.85684486
_cell_length_c   17.63331800
_cell_angle_alpha   91.98289596
_cell_angle_beta   89.99970789
_cell_angle_gamma   89.99890815
_symmetry_Int_Tables_number   1
_chemical_formula_structural   MnH14C20N2O9
_chemical_formula_sum   'Mn4 H56 C80 N8 O36'
_cell_volume   1936.53439509
_cell_formula_units_Z   4
loop_
 _symmetry_equiv_pos_site_id
 _symmetry_equiv_pos_as_xyz
  1  'x, y, z'
loop_
 _atom_site_type_symbol
 _atom_site_label
 _atom_site_symmetry_multiplicity
 _atom_site_fract_x
 _atom_site_fract_y
 _atom_site_fract_z
 _atom_site_occupancy
 _atom_site_pbe_bader_charge
 _atom_site_pbe_bader_spin_density
 _atom_site_pbe_cm5_charge
 _atom_site_pbe_ddec_charge
 _atom_site_pbe_ddec_spin_density
 _atom_site_pbe_ddec_sum_bond_order
 _atom_site_pbe_magmom
Mn  Mn0  1  0.76484729  0.63412566  0.31855669  1  1.490272  4.505206  0.618366  0.853467  4.648166  2.475211  4.43
Mn  Mn1  1  0.26485890  0.86586082  0.18143788  1  1.490307  4.505211  0.61835  0.853581  4.648306  2.475062  4.43
Mn  Mn2  1  0.23517254  0.36587263  0.68144221  1  1.490271  4.505188  0.61843  0.853629  4.64816  2.475076  4.43
Mn  Mn3  1  0.73514922  0.13413903  0.81855823  1  1.490269  4.5052  0.618337  0.853491  4.64834  2.475113  4.43
H  H4  1  0.36046442  0.62415038  0.25249348  1  0.118125  0.001635  0.123631  0.098424  0.000581  0.978987  0.001
H  H5  1  0.86045365  0.87585355  0.24751037  1  0.118036  0.001635  0.12365  0.098458  0.00058  0.978981  0.001
H  H6  1  0.63953902  0.37585413  0.74750558  1  0.117998  0.001636  0.123627  0.098408  0.000581  0.97905  0.001
H  H7  1  0.13954746  0.12413773  0.75249403  1  0.118034  0.001635  0.123646  0.098475  0.00058  0.978996  0.001
H  H8  1  0.37845646  0.60739190  0.09707424  1  0.110272  0.00047  0.117642  0.124767  3.4e-05  0.979009  0.0
H  H9  1  0.87845760  0.89261414  0.40292735  1  0.110129  0.00047  0.117651  0.124721  3.4e-05  0.979096  0.0
H  H10  1  0.62154465  0.39261184  0.90292650  1  0.110301  0.00047  0.117632  0.124723  3.4e-05  0.979107  0.0
H  H11  1  0.12154701  0.10738259  0.59707151  1  0.110137  0.00047  0.117632  0.124723  3.4e-05  0.979093  0.0
H  H12  1  0.63838056  0.54687466  0.09063269  1  0.10868  0.000222  0.118258  0.119255  5.4e-05  0.984601  0.0
H  H13  1  0.13838727  0.95312278  0.40936531  1  0.108663  0.000222  0.118255  0.119282  5.4e-05  0.984529  0.0
H  H14  1  0.36161820  0.45312363  0.90936848  1  0.108669  0.000222  0.118285  0.119312  5.4e-05  0.984492  0.0
H  H15  1  0.86161149  0.04688174  0.59063545  1  0.108572  0.000222  0.118319  0.119432  5.3e-05  0.984506  0.0
H  H16  1  0.59580619  0.38649695  0.21242874  1  0.091245  0.000601  0.121368  0.092511  0.000228  0.95324  0.0
H  H17  1  0.09581106  0.11350836  0.28757403  1  0.091101  0.000601  0.121397  0.092604  0.000228  0.953131  0.0
H  H18  1  0.40420076  0.61350134  0.78757073  1  0.09123  0.000601  0.121394  0.092473  0.000227  0.953235  0.0
H  H19  1  0.90419356  0.88649382  0.71242780  1  0.09123  0.000601  0.121377  0.092516  0.000228  0.953207  0.0
H  H20  1  0.05113773  0.46317479  0.13029292  1  0.652627  4.1e-05  0.302517  0.35537  -2.8e-05  0.977407  0.0
H  H21  1  0.55113304  0.03682798  0.36970650  1  0.652693  4.1e-05  0.302492  0.355338  -2.8e-05  0.977433  0.0
H  H22  1  0.94885636  0.53682817  0.86970553  1  0.652579  4.1e-05  0.302479  0.355315  -2.8e-05  0.977511  0.0
H  H23  1  0.44885519  0.96316953  0.63029635  1  0.652513  4.1e-05  0.302514  0.355353  -2.8e-05  0.97748  0.0
H  H24  1  0.75522217  0.36447039  0.08664352  1  0.651617  0.000218  0.296886  0.348178  0.000239  0.996186  0.0
H  H25  1  0.25522390  0.13553133  0.41335933  1  0.651733  0.000218  0.29688  0.348224  0.000239  0.996135  0.0
H  H26  1  0.24478128  0.63553569  0.91336181  1  0.651665  0.000218  0.29694  0.34833  0.000239  0.996032  0.0
H  H27  1  0.74477135  0.86446774  0.58663902  1  0.651738  0.000218  0.296886  0.348262  0.000239  0.996106  0.0
H  H28  1  0.50053737  0.81386145  0.35077580  1  0.112301  0.00123  0.119619  0.087284  0.000438  1.010463  0.001
H  H29  1  0.00053693  0.68614242  0.14922950  1  0.11223  0.00123  0.119637  0.087316  0.000438  1.010373  0.001
H  H30  1  0.49945437  0.18613139  0.64922466  1  0.112352  0.00123  0.11962  0.087319  0.000439  1.010347  0.001
H  H31  1  0.99946066  0.31386755  0.85077423  1  0.112317  0.001229  0.119657  0.087376  0.000438  1.010307  0.001
H  H32  1  0.34872459  0.88151125  0.46397587  1  0.143335  0.000593  0.110133  0.121767  0.000279  1.0053  0.0
H  H33  1  0.84873629  0.61848972  0.03602906  1  0.143734  0.000593  0.110093  0.121779  0.000279  1.005079  0.0
H  H34  1  0.65128353  0.11848470  0.53602921  1  0.14341  0.000593  0.110079  0.121693  0.000279  1.005292  0.0
H  H35  1  0.15127066  0.38150857  0.96397607  1  0.143444  0.000593  0.110113  0.121698  0.000279  1.005215  0.0
H  H36  1  0.37225496  0.79166692  0.58628342  1  0.131907  1.6e-05  0.113165  0.115604  -2.6e-05  1.002845  0.0
H  H37  1  0.87225543  0.70833176  0.91372094  1  0.132033  1.6e-05  0.113198  0.115648  -2.6e-05  1.002871  0.0
H  H38  1  0.62774147  0.20833293  0.41373196  1  0.132121  1.6e-05  0.113209  0.115623  -2.6e-05  1.003077  0.0
H  H39  1  0.12774919  0.29166809  0.08628140  1  0.132152  1.6e-05  0.113173  0.115626  -2.6e-05  1.002845  0.0
H  H40  1  0.50682557  0.65396013  0.66166506  1  0.086891  0.00021  0.110554  0.118233  5.4e-05  0.987115  0.0
H  H41  1  0.00683142  0.84603856  0.83833681  1  0.08697  0.00021  0.110579  0.118147  5.4e-05  0.987244  0.0
H  H42  1  0.49316500  0.34604128  0.33834413  1  0.087056  0.00021  0.110598  0.118141  5.4e-05  0.987434  0.0
H  H43  1  0.99318255  0.15395662  0.16166428  1  0.086851  0.00021  0.110529  0.118239  5.4e-05  0.98707  0.0
H  H44  1  0.68100102  0.50154616  0.66477408  1  0.120584  0.000262  0.107576  0.114746  -4e-06  1.019381  0.0
H  H45  1  0.18100955  0.99844485  0.83522489  1  0.120681  0.000262  0.107624  0.114806  -4e-06  1.019368  0.0
H  H46  1  0.31899891  0.49844279  0.33523366  1  0.120718  0.000262  0.107652  0.114806  -4e-06  1.019508  0.0
H  H47  1  0.81900676  0.00154799  0.16477557  1  0.120572  0.000262  0.107563  0.114741  -4e-06  1.019402  0.0
H  H48  1  0.85260610  0.36890992  0.59388445  1  0.143922  0.000291  0.111864  0.119999  -0.000351  1.012505  0.0
H  H49  1  0.35261506  0.13108389  0.90611638  1  0.144274  0.000291  0.111856  0.120033  -0.000351  1.012523  0.0
H  H50  1  0.14738564  0.63108447  0.40613023  1  0.143941  0.000291  0.111904  0.12009  -0.000351  1.012632  0.0
H  H51  1  0.64738604  0.86891440  0.09388365  1  0.143954  0.000291  0.111847  0.11999  -0.000351  1.012527  0.0
H  H52  1  0.97637408  0.30998023  0.47189336  1  0.116756  0.0006  0.110221  0.124478  0.000246  1.019407  0.0
H  H53  1  0.47637597  0.19001632  0.02810655  1  0.116791  0.0006  0.110211  0.124495  0.000246  1.019432  0.0
H  H54  1  0.02361883  0.69002740  0.52811144  1  0.116625  0.0006  0.110291  0.124513  0.000246  1.019398  0.0
H  H55  1  0.52362747  0.80998664  0.97189587  1  0.116891  0.0006  0.110211  0.124532  0.000246  1.019386  0.0
H  H56  1  0.93455648  0.41503925  0.35587226  1  0.123812  0.001289  0.123717  0.097093  0.000452  0.974165  0.001
H  H57  1  0.43453910  0.08496173  0.14413014  1  0.123885  0.001288  0.123723  0.097138  0.000452  0.974241  0.001
H  H58  1  0.06543994  0.58495826  0.64412662  1  0.124117  0.00129  0.123766  0.097137  0.000453  0.974133  0.001
H  H59  1  0.56544679  0.91504745  0.85587641  1  0.123949  0.001289  0.123759  0.097129  0.000452  0.974202  0.001
C  C60  1  0.46011195  0.60824853  0.21419961  1  0.391733  0.004006  0.011162  0.01475  0.00302  3.803515  0.002
C  C61  1  0.96010499  0.89175647  0.28579835  1  0.391808  0.004005  0.011201  0.01491  0.003018  3.803507  0.002
C  C62  1  0.53989618  0.39175054  0.78579988  1  0.392457  0.004005  0.011242  0.014878  0.003019  3.803692  0.002
C  C63  1  0.03990196  0.10824494  0.71420233  1  0.392095  0.004007  0.011203  0.014797  0.00302  3.80352  0.002
C  C64  1  0.40998950  0.55153053  0.13996168  1  0.029998  0.001129  -0.083226  -0.173288  0.000768  3.841661  0.001
C  C65  1  0.90999184  0.94847355  0.36003922  1  0.030338  0.001129  -0.083241  -0.173338  0.000768  3.841703  0.001
C  C66  1  0.59001043  0.44846854  0.86003724  1  0.029956  0.001129  -0.083246  -0.173291  0.000768  3.841605  0.001
C  C67  1  0.09001044  0.05152629  0.63996199  1  0.030358  0.001129  -0.083213  -0.173297  0.000768  3.841815  0.001
C  C68  1  0.56037662  0.49228019  0.11904669  1  -0.054104  0.000917  -0.083827  -0.19709  0.00057  3.882981  0.0
C  C69  1  0.06038120  0.00772246  0.38095213  1  -0.05414  0.000917  -0.083787  -0.197134  0.00057  3.883167  0.0
C  C70  1  0.43962097  0.50772199  0.88095458  1  -0.054243  0.000916  -0.083808  -0.197144  0.00057  3.882907  0.0
C  C71  1  0.93961289  0.99228050  0.61904632  1  -0.052933  0.000916  -0.08387  -0.19738  0.00057  3.883336  0.0
C  C72  1  0.63159054  0.46504568  0.19632920  1  0.388645  0.002778  0.005982  0.016126  0.001953  3.834655  0.002
C  C73  1  0.13159047  0.03495528  0.30366770  1  0.388693  0.002776  0.005921  0.015981  0.001951  3.834738  0.002
C  C74  1  0.36841056  0.53495416  0.80367371  1  0.388426  0.002778  0.005936  0.016292  0.001953  3.834461  0.002
C  C75  1  0.86840478  0.96504534  0.69632615  1  0.387512  0.002779  0.005859  0.016081  0.001953  3.83472  0.002
C  C76  1  0.53941377  0.71381449  0.20148989  1  1.59346  0.027218  0.228465  0.580409  0.027225  4.133846  0.024
C  C77  1  0.03939835  0.78618655  0.29850503  1  1.593573  0.027216  0.228502  0.580391  0.027224  4.134182  0.024
C  C78  1  0.46060021  0.28618380  0.79849993  1  1.593432  0.027226  0.228454  0.580165  0.027237  4.134394  0.024
C  C79  1  0.96061328  0.21382497  0.70150214  1  1.593768  0.027211  0.228408  0.580347  0.027227  4.134383  0.024
C  C80  1  0.27314347  0.47844879  0.15334372  1  1.559368  0.000256  0.226901  0.608701  0.000139  4.087833  0.0
C  C81  1  0.77314181  0.02155425  0.34665289  1  1.559951  0.000256  0.226873  0.608667  0.00014  4.087712  0.0
C  C82  1  0.72685763  0.52155417  0.84665133  1  1.560032  0.000256  0.226967  0.608708  0.000139  4.088181  0.0
C  C83  1  0.22684642  0.97844326  0.65335053  1  1.559928  0.000256  0.226996  0.608755  0.00014  4.087277  0.0
C  C84  1  0.53954535  0.40055685  0.06308751  1  1.571387  0.000335  0.234708  0.602192  0.000271  4.076817  0.0
C  C85  1  0.03954553  0.09944140  0.43691239  1  1.572183  0.000335  0.234713  0.602178  0.000271  4.076648  0.0
C  C86  1  0.46045810  0.59944222  0.93691141  1  1.571334  0.000335  0.234781  0.602257  0.000271  4.0766  0.0
C  C87  1  0.96045206  0.90056389  0.56308499  1  1.572427  0.000335  0.234766  0.602381  0.000271  4.076614  0.0
C  C88  1  0.81010442  0.47085728  0.19470037  1  1.631843  0.00801  0.222563  0.55847  0.008282  4.159499  0.007
C  C89  1  0.31009748  0.02914140  0.30529660  1  1.631988  0.008012  0.22278  0.558643  0.008283  4.159388  0.007
C  C90  1  0.18990019  0.52913400  0.80529551  1  1.632053  0.008009  0.222681  0.558354  0.008282  4.159528  0.007
C  C91  1  0.68988959  0.97084989  0.69470042  1  1.631917  0.008009  0.222787  0.558691  0.00828  4.159496  0.007
C  C92  1  0.50732711  0.77527280  0.40474314  1  0.502452  0.01402  0.063315  0.120339  0.011256  3.926157  0.009
C  C93  1  0.00732145  0.72472943  0.09525983  1  0.50214  0.014026  0.063253  0.120262  0.011261  3.925923  0.009
C  C94  1  0.49266698  0.22472082  0.59525507  1  0.502417  0.014022  0.063422  0.120463  0.011256  3.925939  0.009
C  C95  1  0.99267615  0.27527509  0.90474206  1  0.502303  0.014026  0.063299  0.120247  0.01126  3.925877  0.009
C  C96  1  0.42329619  0.81346300  0.46821794  1  -0.021491  -0.000771  -0.078335  -0.111342  -0.001473  3.937216  -0.001
C  C97  1  0.92329897  0.68653857  0.03178683  1  -0.02149  -0.000774  -0.078289  -0.111315  -0.001476  3.937124  -0.001
C  C98  1  0.57670140  0.18653217  0.53178031  1  -0.021719  -0.000773  -0.07834  -0.111406  -0.001476  3.93726  -0.001
C  C99  1  0.07670448  0.31346050  0.96821663  1  -0.021398  -0.000773  -0.078382  -0.111371  -0.001475  3.937249  -0.001
C  C100  1  0.43693164  0.76409539  0.53622123  1  -0.03711  0.01224  -0.055756  -0.053809  0.009572  3.898255  0.007
C  C101  1  0.93694365  0.73590168  0.96378180  1  -0.037186  0.012247  -0.055773  -0.053883  0.009578  3.898278  0.007
C  C102  1  0.56306479  0.23590445  0.46378054  1  -0.037042  0.012242  -0.055799  -0.053785  0.009574  3.898327  0.007
C  C103  1  0.06306798  0.26409505  0.03622046  1  -0.037649  0.012245  -0.055762  -0.0538  0.009577  3.898237  0.007
C  C104  1  0.53691223  0.67711115  0.54096606  1  -0.010112  5e-06  0.000421  0.040402  -0.000637  4.005427  -0.001
C  C105  1  0.03691514  0.82288949  0.95903521  1  -0.010357  4e-06  0.000399  0.040406  -0.000639  4.005369  -0.001
C  C106  1  0.46307366  0.32289337  0.45902959  1  -0.010439  2e-06  0.000525  0.040486  -0.00064  4.005153  -0.001
C  C107  1  0.96309299  0.17710803  0.04096480  1  -0.010183  4e-06  0.000402  0.040298  -0.000639  4.005344  -0.001
C  C108  1  0.56365046  0.62433862  0.60995594  1  -0.023511  1.2e-05  -0.077948  -0.105109  -0.000447  3.956736  0.0
C  C109  1  0.06365843  0.87566167  0.89004583  1  -0.023891  1.3e-05  -0.077921  -0.104924  -0.000446  3.956671  0.0
C  C110  1  0.43634128  0.37566434  0.39004364  1  -0.023566  1.3e-05  -0.078031  -0.105076  -0.000445  3.957136  0.0
C  C111  1  0.93635554  0.12433739  0.10995593  1  -0.023531  1.3e-05  -0.077894  -0.105038  -0.000446  3.956557  0.0
C  C112  1  0.65997599  0.53968589  0.61156898  1  -0.06608  -1.4e-05  -0.080182  -0.110717  -0.000493  3.961836  0.0
C  C113  1  0.15998388  0.96031239  0.88843137  1  -0.065946  -1.5e-05  -0.08022  -0.110846  -0.000495  3.961789  0.0
C  C114  1  0.34001693  0.46031317  0.38843051  1  -0.066098  -1.6e-05  -0.080249  -0.110768  -0.000496  3.962127  0.0
C  C115  1  0.84002775  0.03968512  0.11157035  1  -0.066464  -1.5e-05  -0.080208  -0.110792  -0.000495  3.961714  0.0
C  C116  1  0.73519690  0.50018959  0.54402914  1  0.041374  0.000172  -0.000644  0.035872  -0.000443  4.020034  0.0
C  C117  1  0.23520763  0.99980539  0.95597037  1  0.041372  0.000174  -0.000627  0.035972  -0.000442  4.020079  0.0
C  C118  1  0.26479017  0.49980792  0.45596577  1  0.041423  0.000173  -0.000673  0.036021  -0.000442  4.019916  0.0
C  C119  1  0.76480049  0.00019290  0.04403023  1  0.041746  0.000173  -0.000566  0.035999  -0.000442  4.019961  0.0
C  C120  1  0.83198582  0.41105623  0.54216632  1  -0.10679  0.012124  -0.058664  -0.064971  0.009273  3.902814  0.007
C  C121  1  0.33200247  0.08893473  0.95783336  1  -0.106712  0.012122  -0.058607  -0.064997  0.009272  3.902909  0.007
C  C122  1  0.16800475  0.58894362  0.45783489  1  -0.106459  0.012111  -0.058672  -0.065102  0.009263  3.902978  0.007
C  C123  1  0.66801268  0.91105966  0.04216545  1  -0.106674  0.01212  -0.058711  -0.064982  0.009271  3.902754  0.007
C  C124  1  0.90217917  0.37878767  0.47473829  1  0.006054  -0.000607  -0.080378  -0.123062  -0.001379  3.961408  -0.001
C  C125  1  0.40218775  0.12120983  0.02526069  1  0.005921  -0.000606  -0.080453  -0.123141  -0.001377  3.961553  -0.001
C  C126  1  0.09781257  0.62121373  0.52526125  1  0.005752  -0.000604  -0.080438  -0.123107  -0.001376  3.961553  -0.001
C  C127  1  0.59781804  0.87879547  0.97473839  1  0.005877  -0.000605  -0.080398  -0.123275  -0.001377  3.96149  -0.001
C  C128  1  0.87778902  0.43661599  0.40962554  1  0.512053  0.013588  0.061867  0.109119  0.010918  3.93447  0.009
C  C129  1  0.37778804  0.06338728  0.09037365  1  0.51165  0.013587  0.061874  0.109106  0.010917  3.934433  0.009
C  C130  1  0.12219921  0.56338697  0.59037008  1  0.51159  0.013571  0.061714  0.109049  0.010904  3.934722  0.009
C  C131  1  0.62221190  0.93662424  0.90962785  1  0.511672  0.013584  0.061906  0.109224  0.010915  3.934339  0.009
C  C132  1  0.71471930  0.55251303  0.47514249  1  0.453929  0.008594  0.119835  0.119741  0.007059  3.982318  0.006
C  C133  1  0.21471501  0.94748965  0.02485658  1  0.454038  0.008591  0.119702  0.119594  0.007058  3.982455  0.006
C  C134  1  0.28525723  0.44748448  0.52485582  1  0.453885  0.008588  0.119796  0.11941  0.007056  3.982591  0.006
C  C135  1  0.78527907  0.05251720  0.97514481  1  0.45389  0.008592  0.119774  0.119548  0.007058  3.982355  0.006
C  C136  1  0.61520313  0.64270467  0.47369455  1  0.484404  0.0087  0.120853  0.125611  0.007034  3.971495  0.006
C  C137  1  0.11519907  0.85730007  0.02630425  1  0.484367  0.008703  0.120804  0.125553  0.007037  3.97153  0.006
C  C138  1  0.38478276  0.35729206  0.52630487  1  0.48444  0.008701  0.12082  0.125682  0.007037  3.971696  0.006
C  C139  1  0.88479852  0.14270678  0.97369487  1  0.484506  0.008702  0.120874  0.125785  0.007036  3.971475  0.006
N  N140  1  0.78695895  0.52103451  0.40958655  1  -1.2634  0.055965  -0.320834  -0.28819  0.037875  3.533219  0.018
N  N141  1  0.28695892  0.97896570  0.09041171  1  -1.263228  0.055963  -0.320779  -0.288142  0.037875  3.533  0.018
N  N142  1  0.21302110  0.47897079  0.59040402  1  -1.263311  0.055967  -0.320739  -0.288091  0.037872  3.533531  0.018
N  N143  1  0.71304102  0.02104115  0.90958910  1  -1.262976  0.055958  -0.320889  -0.288176  0.037875  3.532917  0.018
N  N144  1  0.60010402  0.69194006  0.40694068  1  -1.297034  0.054361  -0.320674  -0.289214  0.035862  3.510697  0.015
N  N145  1  0.10010301  0.80806176  0.09305922  1  -1.296927  0.054344  -0.320604  -0.289214  0.03586  3.510544  0.015
N  N146  1  0.39989357  0.30805434  0.59305245  1  -1.296919  0.054355  -0.320769  -0.289389  0.035862  3.511106  0.015
N  N147  1  0.89989341  0.19194275  0.90694097  1  -1.296883  0.054347  -0.320676  -0.289273  0.035862  3.510716  0.015
O  O148  1  0.56600527  0.53840802  0.25134717  1  -1.03607  0.041827  -0.194207  -0.244222  0.03186  2.531235  0.023
O  O149  1  0.06599939  0.96159346  0.24865168  1  -1.036205  0.041813  -0.194233  -0.244279  0.031848  2.531192  0.023
O  O150  1  0.43401689  0.46159883  0.74865082  1  -1.036435  0.041837  -0.194301  -0.244372  0.031863  2.531103  0.023
O  O151  1  0.93399469  0.03841262  0.75134629  1  -1.036459  0.041823  -0.194227  -0.24425  0.031855  2.5311  0.023
O  O152  1  0.67211976  0.73156743  0.23131726  1  -1.193412  0.073536  -0.303352  -0.534161  0.051308  2.284277  0.039
O  O153  1  0.17212272  0.76843347  0.26868867  1  -1.193421  0.073541  -0.303387  -0.534267  0.051309  2.284158  0.039
O  O154  1  0.32788720  0.26843631  0.76867724  1  -1.193486  0.073555  -0.303351  -0.534086  0.051318  2.284471  0.039
O  O155  1  0.82789126  0.23157105  0.73131095  1  -1.193786  0.073552  -0.303386  -0.53424  0.051309  2.284457  0.039
O  O156  1  0.46372858  0.77789090  0.16237380  1  -1.214274  0.078569  -0.311735  -0.525894  0.052897  2.346842  0.033
O  O157  1  0.96369552  0.72211094  0.33761103  1  -1.214339  0.078559  -0.311761  -0.525869  0.052896  2.347219  0.033
O  O158  1  0.53628540  0.22209727  0.83760443  1  -1.214149  0.078582  -0.311772  -0.5258  0.052905  2.347272  0.033
O  O159  1  0.03632782  0.27789747  0.66239947  1  -1.214043  0.078558  -0.311726  -0.525846  0.05291  2.347376  0.033
O  O160  1  0.28138576  0.40341580  0.19460592  1  -1.175755  0.000321  -0.31072  -0.514033  1.7e-05  2.069442  0.0
O  O161  1  0.78137887  0.09658013  0.30538538  1  -1.175847  0.000321  -0.310694  -0.513912  1.8e-05  2.06944  0.0
O  O162  1  0.71862003  0.59656848  0.80538355  1  -1.175787  0.000321  -0.310736  -0.513904  1.7e-05  2.070091  0.0
O  O163  1  0.21861170  0.90342439  0.69461765  1  -1.175943  0.000321  -0.3107  -0.51385  1.7e-05  2.069506  0.0
O  O164  1  0.14497290  0.50758566  0.11671927  1  -1.168512  0.000478  -0.333931  -0.491686  0.000121  2.340206  0.0
O  O165  1  0.64497373  0.99242181  0.38328123  1  -1.16916  0.000478  -0.33391  -0.491691  0.000121  2.340188  0.0
O  O166  1  0.85502235  0.49242197  0.88328724  1  -1.169112  0.000478  -0.333901  -0.491707  0.000121  2.340202  0.0
O  O167  1  0.35502152  0.00757259  0.61671701  1  -1.168846  0.000478  -0.334037  -0.491861  0.000121  2.339839  0.0
O  O168  1  0.66334320  0.33844174  0.05315671  1  -1.177561  0.000671  -0.332267  -0.481171  0.000307  2.28947  0.0
O  O169  1  0.16334267  0.16155804  0.44684519  1  -1.177686  0.000671  -0.332293  -0.481215  0.000307  2.289185  0.0
O  O170  1  0.33666141  0.66155733  0.94684731  1  -1.177525  0.000671  -0.332355  -0.481332  0.000307  2.289308  0.0
O  O171  1  0.83665960  0.83844881  0.55315166  1  -1.177785  0.000671  -0.332356  -0.481358  0.000307  2.289255  0.0
O  O172  1  0.41797768  0.38535855  0.02742147  1  -1.151084  0.000579  -0.278275  -0.479649  0.000384  2.164569  0.0
O  O173  1  0.91797904  0.11464109  0.47257866  1  -1.151744  0.000579  -0.278242  -0.479585  0.000385  2.164655  0.0
O  O174  1  0.58203045  0.61464519  0.97257530  1  -1.150904  0.000579  -0.278308  -0.479654  0.000384  2.164538  0.0
O  O175  1  0.08202089  0.88536187  0.52741866  1  -1.15207  0.000579  -0.278198  -0.4796  0.000385  2.164614  0.0
O  O176  1  0.87638674  0.41546512  0.14227040  1  -1.176746  0.008682  -0.298827  -0.528586  0.006217  2.253787  0.007
O  O177  1  0.37638234  0.08452337  0.35771878  1  -1.176657  0.008682  -0.298778  -0.528502  0.006217  2.2539  0.007
O  O178  1  0.12360500  0.58453161  0.85771769  1  -1.176644  0.008683  -0.298759  -0.528519  0.006218  2.253742  0.007
O  O179  1  0.62360824  0.91546480  0.64228100  1  -1.176618  0.008679  -0.298771  -0.528563  0.006214  2.254109  0.007
O  O180  1  0.88251301  0.52888422  0.24182152  1  -1.196125  0.059429  -0.297743  -0.506618  0.04024  2.313996  0.028
O  O181  1  0.38251612  0.97110931  0.25816556  1  -1.196324  0.059431  -0.298031  -0.506974  0.04025  2.313735  0.028
O  O182  1  0.11749277  0.47109850  0.75817812  1  -1.196437  0.059439  -0.297941  -0.506714  0.04024  2.313919  0.028
O  O183  1  0.61746978  0.02888742  0.74183046  1  -1.196258  0.059426  -0.297972  -0.506914  0.04024  2.313619  0.028
