# generated using pymatgen
data_Zn4H36C36O13
_symmetry_space_group_name_H-M   'P 1'
_cell_length_a   18.21061935
_cell_length_b   18.40727151
_cell_length_c   18.20715431
_cell_angle_alpha   59.84332451
_cell_angle_beta   60.47524064
_cell_angle_gamma   90.10645021
_symmetry_Int_Tables_number   1
_chemical_formula_structural   Zn4H36C36O13
_chemical_formula_sum   'Zn8 H72 C72 O26'
_cell_volume   4332.19761980
_cell_formula_units_Z   2
loop_
 _symmetry_equiv_pos_site_id
 _symmetry_equiv_pos_as_xyz
  1  'x, y, z'
loop_
 _atom_site_type_symbol
 _atom_site_label
 _atom_site_symmetry_multiplicity
 _atom_site_fract_x
 _atom_site_fract_y
 _atom_site_fract_z
 _atom_site_occupancy
 _atom_site_pbe_bader_charge
 _atom_site_pbe_bader_spin_density
 _atom_site_pbe_cm5_charge
 _atom_site_pbe_ddec_charge
 _atom_site_pbe_ddec_spin_density
 _atom_site_pbe_ddec_sum_bond_order
 _atom_site_pbe_magmom
Zn  Zn0  1  0.94423399  0.04563036  0.10189977  1  1.303889  0  0.66858  0.954193  0  2.394369  0
Zn  Zn1  1  0.94307759  0.05351011  0.92292809  1  1.31075  0  0.669639  0.958197  0  2.370662  0
Zn  Zn2  1  0.94314564  0.87530198  0.09553584  1  1.313479  0  0.668203  0.952585  0  2.399078  0
Zn  Zn3  1  0.11866763  0.04688205  0.92587762  1  1.304478  0  0.669427  0.95672  0  2.378785  0
Zn  Zn4  1  0.53222231  0.46064861  0.92538409  1  1.29891  0  0.667617  0.953157  0  2.394278  0
Zn  Zn5  1  0.53300810  0.46525980  0.09831589  1  1.300109  0  0.6688  0.957144  0  2.372503  0
Zn  Zn6  1  0.35606470  0.46091205  0.09885833  1  1.299137  0  0.668405  0.954483  0  2.3847  0
Zn  Zn7  1  0.52786143  0.63612350  0.92185283  1  1.307271  0  0.667731  0.952707  0  2.393435  0
H  H8  1  0.96576587  0.30192340  0.91016658  1  0.036912  0  0.091108  0.128073  0  1.011557  0
H  H9  1  0.96185936  0.40338803  0.82383522  1  0.015332  0  0.09064  0.123046  0  1.026346  0
H  H10  1  0.95416482  0.31293981  0.81426326  1  0.046757  0  0.094674  0.132869  0  0.989953  0
H  H11  1  0.78723045  0.48208099  0.91076381  1  0.035075  0  0.091603  0.127833  0  1.009596  0
H  H12  1  0.88942132  0.47759731  0.82724367  1  0.017504  0  0.090647  0.122761  0  1.026265  0
H  H13  1  0.80080582  0.47357585  0.81232590  1  0.065421  0  0.094341  0.132428  0  0.992502  0
H  H14  1  0.51276076  0.21254669  0.12082079  1  0.04814  0  0.091655  0.127925  0  1.011876  0
H  H15  1  0.51666174  0.10890824  0.20282089  1  0.018671  0  0.091529  0.125599  0  1.01524  0
H  H16  1  0.52020267  0.19419406  0.22183096  1  0.062809  0  0.09432  0.132072  0  0.990188  0
H  H17  1  0.64713666  0.03110182  0.13338566  1  0.044178  0  0.093426  0.129629  0  0.994027  0
H  H18  1  0.59535595  0.04039983  0.23867388  1  0.03641  0  0.092618  0.126149  0  1.009836  0
H  H19  1  0.70476655  0.03485099  0.18709609  1  0.04021  0  0.092207  0.129012  0  1.011935  0
H  H20  1  0.65494176  0.85804764  0.36145828  1  0.007287  0  0.092893  0.129656  0  0.993497  0
H  H21  1  0.59516142  0.74362533  0.43311759  1  0.003151  0  0.092477  0.126099  0  1.014009  0
H  H22  1  0.70577324  0.79069078  0.32229461  1  0.032452  0  0.09274  0.130916  0  1.008729  0
H  H23  1  0.50889004  0.68939213  0.68585981  1  0.028709  0  0.091748  0.1282  0  1.008096  0
H  H24  1  0.51581466  0.70492620  0.57844416  1  0.042961  0  0.091134  0.124504  0  1.019627  0
H  H25  1  0.52009679  0.60397333  0.66617702  1  0.039059  0  0.095036  0.134417  0  0.988784  0
H  H26  1  0.78803479  0.63428838  0.68847004  1  0.013312  0  0.091793  0.127638  0  1.006385  0
H  H27  1  0.88393134  0.73068230  0.58777188  1  0.007811  0  0.090669  0.123058  0  1.02564  0
H  H28  1  0.78598356  0.73512814  0.67817999  1  0.052922  0  0.094297  0.133755  0  0.992693  0
H  H29  1  0.96530963  0.80445110  0.34516804  1  0.036365  0  0.092001  0.128975  0  1.003398  0
H  H30  1  0.95630961  0.81226984  0.44215600  1  0.03807  0  0.090679  0.123635  0  1.026089  0
H  H31  1  0.95105142  0.90046121  0.34310985  1  0.03837  0  0.094431  0.133631  0  0.997978  0
H  H32  1  0.12846403  0.02257603  0.18955451  1  0.056044  0  0.09252  0.129957  0  1.001063  0
H  H33  1  0.23424157  0.03179115  0.17034393  1  0.014478  0  0.090461  0.122767  0  1.026843  0
H  H34  1  0.22139771  0.03682335  0.07786039  1  0.042473  0  0.093858  0.132041  0  0.998567  0
H  H35  1  0.29401935  0.18943754  0.19010427  1  0.021988  0  0.09235  0.129401  0  1.000974  0
H  H36  1  0.30858112  0.10538698  0.16830278  1  0.045124  0  0.090981  0.124067  0  1.026281  0
H  H37  1  0.39267607  0.21107312  0.07743390  1  0.029313  0  0.093778  0.133256  0  1.003235  0
H  H38  1  0.34401570  0.47787620  0.86597475  1  0.059613  0  0.091084  0.126176  0  1.011764  0
H  H39  1  0.26984468  0.46917650  0.83252747  1  0.008501  0  0.092349  0.126202  0  1.009267  0
H  H40  1  0.22972450  0.46234129  0.94727973  1  0.051616  0  0.095824  0.133405  0  0.986369  0
H  H41  1  0.20060435  0.34666223  0.82188516  1  0.038713  0  0.093279  0.128533  0  0.993751  0
H  H42  1  0.14033445  0.38467266  0.89936616  1  0.025248  0  0.093848  0.128605  0  1.002572  0
H  H43  1  0.09363955  0.27700564  0.93944127  1  0.055994  0  0.091319  0.126594  0  1.019629  0
H  H44  1  0.96707869  0.87169261  0.83037056  1  0.006923  0  0.092135  0.128329  0  1.000669  0
H  H45  1  0.95527854  0.76298188  0.85945959  1  0.027907  0  0.091654  0.125436  0  1.020765  0
H  H46  1  0.94962921  0.78285511  0.94718793  1  0.035048  0  0.093866  0.132983  0  1.00396  0
H  H47  1  0.77665283  0.67772954  0.86113128  1  0.034558  0  0.091071  0.125481  0  1.013961  0
H  H48  1  0.88454718  0.72083828  0.82497412  1  0.040873  0  0.091431  0.123477  0  1.015195  0
H  H49  1  0.81121177  0.61508140  0.94276592  1  0.03617  0  0.09582  0.134226  0  0.98668  0
H  H50  1  0.50791565  0.65544197  0.17318632  1  0.046129  0  0.091901  0.128408  0  0.999415  0
H  H51  1  0.51703151  0.76198264  0.14964775  1  0.040417  0  0.090665  0.124044  0  1.025292  0
H  H52  1  0.52390229  0.74645595  0.05848650  1  0.049582  0  0.094412  0.134579  0  1.002358  0
H  H53  1  0.68593399  0.83553838  0.16028958  1  0.037482  0  0.091502  0.12853  0  1.00713  0
H  H54  1  0.58786503  0.82324704  0.16357638  1  0.001179  0  0.090614  0.1229  0  1.026063  0
H  H55  1  0.68283950  0.92007253  0.05675036  1  0.071577  0  0.095379  0.134657  0  0.990347  0
H  H56  1  0.13554885  0.31896470  0.68079471  1  0.018213  0  0.091984  0.128549  0  1.000442  0
H  H57  1  0.24305762  0.40085989  0.58798396  1  0.008495  0  0.090232  0.12228  0  1.028013  0
H  H58  1  0.22700944  0.29366736  0.68701366  1  0.04627  0  0.094432  0.133999  0  0.997079  0
H  H59  1  0.30219487  0.48843678  0.35012111  1  0.029103  0  0.091989  0.128008  0  0.997604  0
H  H60  1  0.32120941  0.47277145  0.44272239  1  0.04072  0  0.090605  0.123469  0  1.027376  0
H  H61  1  0.40050175  0.46717736  0.33992146  1  0.074714  0  0.094046  0.134022  0  1.001519  0
H  H62  1  0.34104637  0.18997586  0.35087400  1  0.012876  0  0.092073  0.127714  0  0.998659  0
H  H63  1  0.22899158  0.11793509  0.43609708  1  0.026249  0  0.090511  0.123809  0  1.027004  0
H  H64  1  0.25874352  0.22773834  0.33115870  1  0.054392  0  0.093256  0.132672  0  1.008299  0
H  H65  1  0.17896287  0.02957410  0.67219766  1  0.037604  0  0.092145  0.12872  0  0.998691  0
H  H66  1  0.15751898  0.04411662  0.58164838  1  0.018425  0  0.090717  0.123337  0  1.026728  0
H  H67  1  0.07921403  0.04895483  0.68555043  1  0.070148  0  0.093498  0.131921  0  1.003357  0
H  H68  1  0.11321522  0.80558453  0.90216646  1  0.073613  0  0.091909  0.129607  0  1.007057  0
H  H69  1  0.21498765  0.81201143  0.80502901  1  0.055829  0  0.090538  0.123468  0  1.024864  0
H  H70  1  0.20916517  0.90117276  0.81809695  1  0.054737  0  0.094171  0.131983  0  0.996569  0
H  H71  1  0.29211466  0.63536344  0.90146320  1  0.068759  0  0.091638  0.128345  0  1.008323  0
H  H72  1  0.27219009  0.72340617  0.81867259  1  0.013493  0  0.090642  0.12297  0  1.023367  0
H  H73  1  0.37542418  0.74197392  0.80428694  1  0.042216  0  0.094851  0.133395  0  0.990593  0
H  H74  1  0.35343846  0.70460342  0.11995810  1  0.053156  0  0.092271  0.129356  0  1.003497  0
H  H75  1  0.24792529  0.68769012  0.22146288  1  0.036486  0  0.090991  0.123883  0  1.025859  0
H  H76  1  0.26447086  0.60388648  0.19947826  1  0.045019  0  0.093507  0.132727  0  1.000821  0
H  H77  1  0.19397874  0.86768357  0.12232187  1  0.042322  0  0.092778  0.13073  0  1.001456  0
H  H78  1  0.17355587  0.75966554  0.22364144  1  0.032188  0  0.090703  0.123717  0  1.024811  0
H  H79  1  0.09048689  0.78289664  0.19967474  1  0.051737  0  0.09322  0.130876  0  1.002086  0
C  C80  1  0.84838826  0.14505379  0.01628211  1  1.525361  0  0.234179  0.636671  0  4.153321  0
C  C81  1  0.79081393  0.20323545  0.01782285  1  0.021512  0  -0.020331  -0.150384  0  3.950181  0
C  C82  1  0.83337081  0.29586436  0.94446031  1  0.028553  0  -0.008561  0.088795  0  3.943613  0
C  C83  1  0.93383591  0.33093713  0.86914538  1  -0.053051  0  -0.239202  -0.402408  0  3.97392  0
C  C84  1  0.77975254  0.35076335  0.94438960  1  -0.007678  0  -0.009269  0.088071  0  3.944515  0
C  C85  1  0.81677070  0.45102924  0.86970160  1  -0.069383  0  -0.238759  -0.401867  0  3.976343  0
C  C86  1  0.68658861  0.30968817  0.01665507  1  -0.059339  0  -0.01998  -0.151025  0  3.951179  0
C  C87  1  0.62909141  0.36802795  0.01482540  1  1.533141  0  0.234775  0.637862  0  4.150355  0
C  C88  1  0.64413443  0.21725226  0.08946461  1  0.102361  0  -0.009673  0.088621  0  3.944692  0
C  C89  1  0.54339799  0.18080792  0.16278746  1  -0.071237  0  -0.238679  -0.404465  0  3.9747  0
C  C90  1  0.69791323  0.16238231  0.09090412  1  -0.035221  0  -0.00958  0.087495  0  3.944521  0
C  C91  1  0.65906548  0.06218336  0.16650061  1  -0.057974  0  -0.238129  -0.403174  0  3.977864  0
C  C92  1  0.84797320  0.86166201  0.28959031  1  1.52287  0  0.234623  0.638638  0  4.150521  0
C  C93  1  0.78962412  0.80254943  0.40550092  1  0.063118  0  -0.020329  -0.151504  0  3.954289  0
C  C94  1  0.69725385  0.76845441  0.45502361  1  0.007012  0  -0.009496  0.087703  0  3.947169  0
C  C95  1  0.66102658  0.79110635  0.39013867  1  -0.001326  0  -0.238742  -0.404161  0  3.975678  0
C  C96  1  0.64212752  0.71555573  0.56386060  1  0.007442  0  -0.009055  0.089893  0  3.944969  0
C  C97  1  0.54171379  0.67669660  0.62612387  1  -0.057723  0  -0.23911  -0.405661  0  3.978009  0
C  C98  1  0.68315289  0.69836883  0.61623518  1  0.007276  0  -0.020579  -0.150347  0  3.952823  0
C  C99  1  0.62465035  0.64159302  0.73215401  1  1.518189  0  0.234616  0.63858  0  4.152199  0
C  C100  1  0.77581941  0.73134315  0.56671005  1  0.007361  0  -0.008573  0.089002  0  3.943126  0
C  C101  1  0.81084514  0.70702076  0.63297032  1  -0.01295  0  -0.239425  -0.403627  0  3.974405  0
C  C102  1  0.83070837  0.78586948  0.45792252  1  -0.005352  0  -0.009082  0.088723  0  3.945268  0
C  C103  1  0.93087969  0.82751232  0.39457532  1  -0.062425  0  -0.239555  -0.404996  0  3.975822  0
C  C104  1  0.12725580  0.13875870  0.01662004  1  1.560732  0  0.234383  0.637938  0  4.151652  0
C  C105  1  0.18509460  0.19700725  0.01651198  1  -0.051443  0  -0.020671  -0.150901  0  3.95019  0
C  C106  1  0.22233934  0.15659118  0.07271223  1  0.027998  0  -0.008832  0.088113  0  3.943311  0
C  C107  1  0.20094075  0.05692431  0.13083220  1  -0.062674  0  -0.239275  -0.403276  0  3.975806  0
C  C108  1  0.27692327  0.21134649  0.07208405  1  0.014339  0  -0.008886  0.089058  0  3.940511  0
C  C109  1  0.31993965  0.17686407  0.13020983  1  -0.04111  0  -0.239465  -0.404474  0  3.975344  0
C  C110  1  0.29190464  0.30349848  0.01434940  1  -0.036929  0  -0.0211  -0.152319  0  3.954347  0
C  C111  1  0.34947766  0.36190563  0.01429632  1  1.565713  0  0.234571  0.637581  0  4.155675  0
C  C112  1  0.25534093  0.34369362  0.95779703  1  -0.00281  0  -0.009636  0.088978  0  3.950215  0
C  C113  1  0.27567951  0.44326157  0.89766876  1  -0.057029  0  -0.238092  -0.403991  0  3.981164  0
C  C114  1  0.19944995  0.28870435  0.95990165  1  0.048197  0  -0.009445  0.087637  0  3.946727  0
C  C115  1  0.15644102  0.32633442  0.90217622  1  -0.072413  0  -0.237235  -0.401152  0  3.97869  0
C  C116  1  0.84676793  0.87410717  0.00463324  1  1.578154  0  0.234522  0.638471  0  4.148925  0
C  C117  1  0.78935193  0.81753181  0.00262048  1  -0.078402  0  -0.020623  -0.151677  0  3.949496  0
C  C118  1  0.83093663  0.78057643  0.94782712  1  0.039657  0  -0.009193  0.08826  0  3.944223  0
C  C119  1  0.93081738  0.80027317  0.89300081  1  -0.012638  0  -0.239535  -0.403746  0  3.973075  0
C  C120  1  0.77700293  0.72612202  0.94739062  1  -0.058963  0  -0.00955  0.086826  0  3.949304  0
C  C121  1  0.81457694  0.68297584  0.89106144  1  -0.06418  0  -0.237712  -0.40143  0  3.980763  0
C  C122  1  0.68459991  0.71107152  0.00279929  1  0.044301  0  -0.020461  -0.150256  0  3.951377  0
C  C123  1  0.62673821  0.65084246  0.00500529  1  1.521207  0  0.233685  0.636637  0  4.155463  0
C  C124  1  0.64294280  0.74848228  0.05723040  1  0.039637  0  -0.008961  0.089084  0  3.941601  0
C  C125  1  0.54288607  0.72740909  0.11279030  1  -0.074998  0  -0.239834  -0.406179  0  3.977909  0
C  C126  1  0.69694643  0.80331034  0.05718241  1  0.015418  0  -0.008996  0.088283  0  3.942119  0
C  C127  1  0.66095052  0.84748501  0.11251803  1  -0.049654  0  -0.23922  -0.404543  0  3.978119  0
C  C128  1  0.12704647  0.14692894  0.73345547  1  1.554126  0  0.236382  0.6427  0  4.140941  0
C  C129  1  0.18567228  0.20560180  0.61732500  1  -0.077083  0  -0.02059  -0.153094  0  3.952883  0
C  C130  1  0.22614266  0.29642671  0.56742177  1  0.119048  0  -0.008895  0.08909  0  3.944604  0
C  C131  1  0.20748015  0.32981547  0.63344688  1  -0.004386  0  -0.239685  -0.404467  0  3.977267  0
C  C132  1  0.28149219  0.35120130  0.45854700  1  -0.012646  0  -0.008731  0.089145  0  3.942795  0
C  C133  1  0.32854630  0.44986514  0.39524321  1  -0.101199  0  -0.23984  -0.404344  0  3.976532  0
C  C134  1  0.29239363  0.31189600  0.40627684  1  0.009196  0  -0.020842  -0.15265  0  3.945569  0
C  C135  1  0.35026978  0.37041645  0.29015210  1  1.525385  0  0.236288  0.641714  0  4.140178  0
C  C136  1  0.25201301  0.22098813  0.45623974  1  0.027949  0  -0.008277  0.090765  0  3.941578  0
C  C137  1  0.27069303  0.18688474  0.39088708  1  -0.041672  0  -0.239676  -0.405125  0  3.980009  0
C  C138  1  0.19722360  0.16613752  0.56512799  1  -0.043954  0  -0.009115  0.088861  0  3.945812  0
C  C139  1  0.15105492  0.06724701  0.62869544  1  -0.064403  0  -0.239424  -0.403714  0  3.976628  0
C  C140  1  0.12441110  0.86393861  0.01171308  1  1.558454  0  0.235272  0.639186  0  4.146981  0
C  C141  1  0.18113970  0.80494419  0.01204331  1  -0.058067  0  -0.020203  -0.153082  0  3.95102  0
C  C142  1  0.21183827  0.78690780  0.93742135  1  0.000311  0  -0.008904  0.089786  0  3.942984  0
C  C143  1  0.18633524  0.82811121  0.86153780  1  -0.132822  0  -0.239644  -0.404017  0  3.972654  0
C  C144  1  0.26514822  0.73166285  0.93733000  1  0.04903  0  -0.009391  0.087453  0  3.945177  0
C  C145  1  0.30281586  0.70720435  0.86129333  1  -0.071788  0  -0.238692  -0.402185  0  3.974774  0
C  C146  1  0.28473546  0.69829480  0.01156816  1  0.001627  0  -0.020668  -0.152699  0  3.951394  0
C  C147  1  0.34360983  0.64141771  0.00988486  1  1.532159  0  0.23539  0.639581  0  4.149678  0
C  C148  1  0.25387134  0.71616220  0.08639489  1  -0.014093  0  -0.008865  0.08902  0  3.941023  0
C  C149  1  0.28077374  0.67627981  0.16103108  1  -0.062856  0  -0.23939  -0.404738  0  3.975366  0
C  C150  1  0.20024285  0.77114633  0.08675299  1  0.01791  0  -0.008505  0.090179  0  3.93926  0
C  C151  1  0.16294181  0.79618391  0.16226834  1  -0.076062  0  -0.23921  -0.404321  0  3.97426  0
O  O152  1  0.98743231  0.00575305  0.01089219  1  -1.233212  0  -0.575835  -1.032402  0  2.554795  0
O  O153  1  0.86164153  0.11739125  0.96057183  1  -1.170647  0  -0.310485  -0.542467  0  2.30358  0
O  O154  1  0.87949980  0.12869560  0.07016636  1  -1.158016  0  -0.312062  -0.548297  0  2.316331  0
O  O155  1  0.61022141  0.39437179  0.07276355  1  -1.154675  0  -0.310257  -0.543834  0  2.306312  0
O  O156  1  0.60406532  0.38608788  0.95513288  1  -1.173124  0  -0.311551  -0.546151  0  2.316865  0
O  O157  1  0.87908753  0.82402223  0.24342420  1  -1.1757  0  -0.311398  -0.546849  0  2.315369  0
O  O158  1  0.86139132  0.94481403  0.24724881  1  -1.157941  0  -0.311589  -0.544569  0  2.310377  0
O  O159  1  0.59692417  0.68213220  0.77516831  1  -1.175588  0  -0.31107  -0.546755  0  2.318266  0
O  O160  1  0.60781427  0.55782819  0.77746496  1  -1.156227  0  -0.310545  -0.543851  0  2.312821  0
O  O161  1  0.16669270  0.12652210  0.94538270  1  -1.163949  0  -0.31062  -0.543506  0  2.30464  0
O  O162  1  0.04374816  0.10667288  0.08773180  1  -1.177014  0  -0.312549  -0.548608  0  2.314425  0
O  O163  1  0.30901597  0.38014424  0.08006250  1  -1.154558  0  -0.310906  -0.543278  0  2.307573  0
O  O164  1  0.43366918  0.38837196  0.94850921  1  -1.177796  0  -0.311776  -0.547609  0  2.321893  0
O  O165  1  0.86118316  0.83272843  0.07456027  1  -1.167281  0  -0.311891  -0.548682  0  2.318622  0
O  O166  1  0.87619513  0.95797147  0.93689428  1  -1.175609  0  -0.309644  -0.54329  0  2.303244  0
O  O167  1  0.60576305  0.68816367  0.94067020  1  -1.154904  0  -0.31145  -0.546564  0  2.320709  0
O  O168  1  0.60354008  0.56743701  0.07123758  1  -1.163353  0  -0.311  -0.545218  0  2.307844  0
O  O169  1  0.16583986  0.11271830  0.77860813  1  -1.166562  0  -0.311582  -0.546967  0  2.307611  0
O  O170  1  0.04374869  0.13628967  0.77680187  1  -1.168269  0  -0.31188  -0.549319  0  2.307357  0
O  O171  1  0.31000888  0.39747771  0.24557867  1  -1.177328  0  -0.311898  -0.548777  0  2.316065  0
O  O172  1  0.43447935  0.38794041  0.24603433  1  -1.150426  0  -0.311069  -0.546422  0  2.309763  0
O  O173  1  0.16450369  0.94654458  0.96187633  1  -1.162042  0  -0.31076  -0.546061  0  2.306088  0
O  O174  1  0.04084823  0.82632766  0.06113528  1  -1.158558  0  -0.311147  -0.54569  0  2.314823  0
O  O175  1  0.30510034  0.55749278  0.06686424  1  -1.162574  0  -0.311093  -0.547006  0  2.31466  0
O  O176  1  0.42757181  0.68238563  0.95135724  1  -1.159851  0  -0.310815  -0.543993  0  2.310962  0
O  O177  1  0.48737045  0.50553476  0.01147954  1  -1.211227  0  -0.574311  -1.03091  0  2.549636  0
