# generated using pymatgen
data_CuH6(C2O3)2
_symmetry_space_group_name_H-M   'P 1'
_cell_length_a   6.92170405
_cell_length_b   8.48861061
_cell_length_c   11.60832471
_cell_angle_alpha   104.86707862
_cell_angle_beta   90.00002984
_cell_angle_gamma   90.00014308
_symmetry_Int_Tables_number   1
_chemical_formula_structural   CuH6(C2O3)2
_chemical_formula_sum   'Cu4 H24 C16 O24'
_cell_volume   659.22197789
_cell_formula_units_Z   4
loop_
 _symmetry_equiv_pos_site_id
 _symmetry_equiv_pos_as_xyz
  1  'x, y, z'
loop_
 _atom_site_type_symbol
 _atom_site_label
 _atom_site_symmetry_multiplicity
 _atom_site_fract_x
 _atom_site_fract_y
 _atom_site_fract_z
 _atom_site_occupancy
 _atom_site_hle17_ddec_charge
 _atom_site_hle17_ddec_spin_density
 _atom_site_hle17_ddec_sum_bond_order
 _atom_site_hle17_magmom
 _atom_site_hse06_10hf_ddec_charge
 _atom_site_hse06_10hf_ddec_spin_density
 _atom_site_hse06_10hf_ddec_sum_bond_order
 _atom_site_hse06_10hf_magmom
 _atom_site_hse06_ddec_charge
 _atom_site_hse06_ddec_spin_density
 _atom_site_hse06_ddec_sum_bond_order
 _atom_site_hse06_magmom
 _atom_site_pbe_cm5_charge
 _atom_site_pbe_ddec_charge
 _atom_site_pbe_ddec_spin_density
 _atom_site_pbe_ddec_sum_bond_order
 _atom_site_pbe_magmom
Cu  Cu0  1  0.56199542  0.58005552  0.14608941  1  1.062381  0.748853  1.621787  0.549  1.067612  0.836097  2.000659  0.672  1.148345  0.902412  1.942478  0.753  0.719394  1.007659  0.78074  2.052497  0.612
Cu  Cu1  1  0.06198541  0.41994682  0.35391210  1  1.062352  -0.748847  1.621871  -0.549  1.06762  -0.836093  2.000722  -0.672  1.148328  -0.902406  1.942562  -0.753  0.719354  1.007652  -0.780729  2.052559  -0.612
Cu  Cu2  1  0.43801285  0.41994627  0.85391294  1  1.062356  0.74885  1.621911  0.549  1.067571  0.836095  2.000786  0.672  1.148286  0.902406  1.942621  0.753  0.719366  1.007606  0.780736  2.052648  0.612
Cu  Cu3  1  0.93800841  0.58005627  0.64608619  1  1.062341  -0.748838  1.621817  -0.549  1.0676  -0.836091  2.000655  -0.672  1.148309  -0.902404  1.942481  -0.753  0.719386  1.007636  -0.780721  2.052475  -0.612
H  H4  1  0.47630774  0.07255081  0.39104942  1  0.129685  -0.000237  0.932601  0.0  0.13968  -5.9e-05  0.987415  0.0  0.143901  -4e-05  0.984831  0.0  0.117028  0.13653  -7.3e-05  0.989723  0.0
H  H5  1  0.97631007  0.92745141  0.10894881  1  0.129699  0.000229  0.93267  0.0  0.139738  5.9e-05  0.987413  0.0  0.143959  4e-05  0.984827  0.0  0.11705  0.136584  7.3e-05  0.98973  0.0
H  H6  1  0.52369186  0.92745582  0.60895645  1  0.129762  -0.000234  0.932546  0.0  0.139747  -5.9e-05  0.987355  0.0  0.14398  -4e-05  0.984754  0.0  0.11706  0.136571  -7.3e-05  0.989691  0.0
H  H7  1  0.02368664  0.07255042  0.89105182  1  0.129676  0.000243  0.932674  0.0  0.139704  5.9e-05  0.987414  0.0  0.143927  4e-05  0.984826  0.0  0.117035  0.136529  7.3e-05  0.989758  0.0
H  H8  1  0.49751650  0.07901675  0.89398136  1  0.135715  -0.000296  0.960889  0.0  0.138338  -9.6e-05  1.029251  0.0  0.144063  -9.4e-05  1.024667  0.0  0.108434  0.134433  -8.5e-05  1.032417  0.0
H  H9  1  0.99751303  0.92098467  0.60602102  1  0.135713  0.000296  0.960905  0.0  0.138296  9.6e-05  1.029292  0.0  0.144019  9.4e-05  1.024709  0.0  0.108416  0.134388  8.5e-05  1.032458  0.0
H  H10  1  0.50248599  0.92098252  0.10602652  1  0.135801  -0.000289  0.960806  0.0  0.138344  -9.6e-05  1.029257  0.0  0.144066  -9.5e-05  1.024676  0.0  0.108422  0.134441  -8.5e-05  1.032422  0.0
H  H11  1  0.00247790  0.07901234  0.39397522  1  0.135823  0.000286  0.96081  0.0  0.138399  9.6e-05  1.02922  0.0  0.144123  9.4e-05  1.024635  0.0  0.108439  0.134491  8.5e-05  1.032386  0.0
H  H12  1  0.21974715  0.45407703  0.14948123  1  0.423533  0.000559  0.890551  0.001  0.390658  0.000911  0.958915  0.001  0.403378  0.000731  0.940362  0.001  0.292598  0.381616  0.000998  0.97207  0.001
H  H13  1  0.71974847  0.54592448  0.35052105  1  0.423436  -0.000558  0.890652  -0.001  0.390562  -0.000911  0.95902  -0.001  0.403283  -0.000731  0.940467  -0.001  0.292534  0.381518  -0.000998  0.972178  -0.001
H  H14  1  0.78025534  0.54592118  0.85051611  1  0.42347  0.000558  0.890602  0.001  0.3906  0.000911  0.958962  0.001  0.40332  0.000731  0.940409  0.001  0.292558  0.381559  0.000998  0.972115  0.001
H  H15  1  0.28025546  0.45407855  0.64948067  1  0.423522  -0.000558  0.890567  -0.001  0.390642  -0.000911  0.958938  -0.001  0.403359  -0.000731  0.940389  -0.001  0.292591  0.381601  -0.000998  0.972093  -0.001
H  H16  1  0.21332272  0.64197685  0.23520430  1  0.427055  0.000539  0.879465  0.001  0.398432  0.000919  0.940194  0.002  0.410738  0.000744  0.922301  0.001  0.294014  0.389613  0.001005  0.95298  0.002
H  H17  1  0.71331480  0.35801737  0.26479397  1  0.426999  -0.00054  0.879535  -0.001  0.398367  -0.00092  0.940278  -0.002  0.410676  -0.000744  0.922383  -0.001  0.293958  0.389546  -0.001005  0.953067  -0.002
H  H18  1  0.78668122  0.35801527  0.76479185  1  0.426991  0.000539  0.879534  0.001  0.398376  0.000919  0.940251  0.002  0.410682  0.000744  0.92236  0.001  0.293978  0.389554  0.001005  0.953041  0.002
H  H19  1  0.28667758  0.64197716  0.73520437  1  0.427027  -0.000539  0.879502  -0.001  0.398412  -0.000919  0.940218  -0.002  0.410717  -0.000744  0.922327  -0.001  0.294004  0.389586  -0.001005  0.953013  -0.002
H  H20  1  0.90528675  0.67127523  0.18529654  1  0.426812  -0.000189  0.866368  -0.001  0.399595  0.000409  0.929639  0.0  0.410532  0.000255  0.913801  0.0  0.300659  0.391715  0.000531  0.941048  0.0
H  H21  1  0.40528079  0.32872561  0.31469966  1  0.426769  0.000187  0.866422  0.001  0.399563  -0.000409  0.929686  0.0  0.410499  -0.000255  0.913848  0.0  0.300654  0.391682  -0.000531  0.941095  0.0
H  H22  1  0.09471863  0.32873026  0.81470394  1  0.426841  -0.000189  0.866377  -0.001  0.399623  0.000409  0.929611  0.0  0.410559  0.000255  0.913773  0.0  0.300673  0.391745  0.00053  0.941018  0.0
H  H23  1  0.59471881  0.67127132  0.68530087  1  0.426834  0.000188  0.866359  0.001  0.39962  -0.000409  0.929615  0.0  0.410556  -0.000255  0.913776  0.0  0.300673  0.391736  -0.000531  0.941027  0.0
H  H24  1  0.86344441  0.66515805  0.04681972  1  0.436687  0.000288  0.861681  0.0  0.407775  0.000687  0.922108  0.001  0.42041  0.000455  0.903971  0.0  0.29942  0.39869  0.000853  0.935143  0.001
H  H25  1  0.36344575  0.33484146  0.45317707  1  0.436743  -0.000288  0.861575  0.0  0.407773  -0.000687  0.922094  -0.001  0.420408  -0.000455  0.903957  0.0  0.29942  0.398682  -0.000853  0.935135  -0.001
H  H26  1  0.13655085  0.33484382  0.95317833  1  0.436728  0.000288  0.861603  0.0  0.407755  0.000687  0.922128  0.001  0.42039  0.000455  0.903991  0.0  0.299394  0.398673  0.000853  0.93516  0.001
H  H27  1  0.63655385  0.66515790  0.54682480  1  0.436759  -0.000288  0.861546  0.0  0.407801  -0.000687  0.922045  -0.001  0.420435  -0.000455  0.903909  0.0  0.299422  0.398714  -0.000853  0.93508  -0.001
C  C28  1  0.56314148  0.81874282  0.36785692  1  0.696251  -0.002362  3.853107  -0.006  0.653419  0.000814  4.14879  -0.001  0.691443  0.000127  4.141456  -0.001  0.219756  0.627454  0.001402  4.152759  -0.001
C  C29  1  0.06312780  0.18125832  0.13214350  1  0.696552  0.00235  3.852701  0.006  0.65366  -0.000813  4.148478  0.001  0.691684  -0.000128  4.141139  0.001  0.219748  0.627699  -0.001401  4.152453  0.001
C  C30  1  0.43685957  0.18126143  0.63214505  1  0.696398  -0.002371  3.852847  -0.006  0.653432  0.000814  4.148704  -0.001  0.691452  0.000127  4.141376  -0.001  0.219728  0.62747  0.001403  4.15267  -0.001
C  C31  1  0.93686746  0.81873874  0.86784931  1  0.696458  0.002365  3.852638  0.006  0.653463  -0.000812  4.148557  0.001  0.691484  -0.000126  4.141226  0.001  0.219697  0.627497  -0.0014  4.152524  0.001
C  C32  1  0.50759616  0.98249514  0.44055801  1  -0.144883  0.00748  3.63369  0.009  -0.166406  0.004909  3.886974  0.006  -0.173671  0.003328  3.903493  0.004  -0.072301  -0.162008  0.005995  3.8769  0.007
C  C33  1  0.00758343  0.01750708  0.05944259  1  -0.145064  -0.007347  3.633797  -0.009  -0.166609  -0.004908  3.887119  -0.006  -0.173872  -0.003324  3.903631  -0.004  -0.072334  -0.162206  -0.005994  3.877056  -0.007
C  C34  1  0.49240778  0.01751027  0.55944763  1  -0.145058  0.007435  3.633657  0.009  -0.166534  0.00491  3.886987  0.006  -0.173807  0.003322  3.903496  0.004  -0.072313  -0.16212  0.005996  3.876934  0.007
C  C35  1  0.99241039  0.98248871  0.94055341  1  -0.145018  -0.007563  3.633704  -0.009  -0.16648  -0.004909  3.887015  -0.006  -0.173747  -0.003324  3.90353  -0.004  -0.072287  -0.162057  -0.005995  3.876963  -0.007
C  C36  1  0.54104919  0.22712017  0.07889752  1  0.699925  -0.001827  3.838087  -0.005  0.661734  0.000747  4.13007  -0.001  0.699889  0.000223  4.121154  -0.001  0.21533  0.635415  0.001137  4.134468  -0.001
C  C37  1  0.04105322  0.77288212  0.42110397  1  0.699961  0.001833  3.838209  0.005  0.661756  -0.000747  4.130169  0.001  0.699911  -0.000225  4.121253  0.001  0.215324  0.635431  -0.001137  4.134558  0.001
C  C38  1  0.45895186  0.77287908  0.92111122  1  0.699812  -0.001815  3.838267  -0.005  0.661497  0.000746  4.1304  -0.001  0.699652  0.000223  4.121491  -0.001  0.215253  0.635177  0.001137  4.134794  -0.001
C  C39  1  0.95895071  0.22711487  0.57889313  1  0.699877  0.001816  3.838217  0.005  0.661581  -0.000747  4.130343  0.001  0.699736  -0.000224  4.121429  0.001  0.215244  0.635257  -0.001137  4.134732  0.001
C  C40  1  0.50855136  0.07181300  0.98625141  1  -0.160884  0.006535  3.624707  0.008  -0.182803  0.004246  3.882525  0.005  -0.190426  0.002883  3.898324  0.004  -0.081671  -0.177824  0.005216  3.872149  0.006
C  C41  1  0.00856002  0.92818714  0.51375394  1  -0.160962  -0.006576  3.624549  -0.008  -0.182789  -0.004246  3.882305  -0.005  -0.190414  -0.002883  3.898112  -0.004  -0.081689  -0.177806  -0.005216  3.871922  -0.006
C  C42  1  0.49144968  0.92819359  0.01375705  1  -0.160963  0.00641  3.624677  0.007  -0.18276  0.004248  3.882539  0.005  -0.190386  0.00288  3.898355  0.004  -0.081636  -0.17778  0.005216  3.872161  0.006
C  C43  1  0.99145114  0.07180985  0.48624315  1  -0.161029  -0.006362  3.62454  -0.007  -0.182891  -0.004247  3.882385  -0.005  -0.19052  -0.002878  3.898197  -0.004  -0.081674  -0.177909  -0.005217  3.872001  -0.006
O  O44  1  0.61541025  0.70917184  0.41774325  1  -0.622429  -0.003858  2.071858  -0.004  -0.559121  -0.002181  2.287457  -0.003  -0.589358  -0.001783  2.277775  -0.002  -0.293009  -0.537812  -0.002663  2.293437  -0.003
O  O45  1  0.11540410  0.29082446  0.08226227  1  -0.62256  0.003867  2.071822  0.004  -0.55923  0.002181  2.28745  0.003  -0.58946  0.001783  2.277762  0.002  -0.293038  -0.537918  0.002664  2.293435  0.003
O  O46  1  0.38459224  0.29082870  0.58226144  1  -0.622436  -0.003853  2.071897  -0.004  -0.55905  -0.002181  2.287512  -0.003  -0.58928  -0.001783  2.277831  -0.002  -0.292994  -0.537742  -0.002663  2.293496  -0.003
O  O47  1  0.88458828  0.70917131  0.91773458  1  -0.622519  0.003854  2.071617  0.004  -0.559183  0.002181  2.28728  0.003  -0.589413  0.001783  2.277592  0.002  -0.293029  -0.537874  0.002664  2.293267  0.003
O  O48  1  0.55221782  0.79986353  0.25466790  1  -0.584573  0.094589  2.028863  0.127  -0.559992  0.057895  2.305432  0.085  -0.602612  0.043673  2.295241  0.068  -0.310068  -0.530326  0.066594  2.311964  0.094
O  O49  1  0.05220713  0.20012775  0.24533575  1  -0.584592  -0.094593  2.028399  -0.127  -0.56003  -0.057903  2.305015  -0.085  -0.602649  -0.043678  2.294826  -0.068  -0.310011  -0.530358  -0.066599  2.31154  -0.094
O  O50  1  0.44778034  0.20013702  0.74533592  1  -0.58463  0.094615  2.028621  0.127  -0.559999  0.057906  2.305236  0.085  -0.602624  0.04368  2.295053  0.068  -0.31005  -0.53033  0.066605  2.311765  0.094
O  O51  1  0.94779102  0.79987172  0.75465925  1  -0.584482  -0.094601  2.02864  -0.127  -0.559859  -0.057903  2.305258  -0.085  -0.602476  -0.043679  2.295073  -0.068  -0.309961  -0.530187  -0.0666  2.311776  -0.094
O  O52  1  0.55451137  0.35561355  0.03874436  1  -0.634744  0.080392  2.07411  0.109  -0.616113  0.047725  2.370755  0.071  -0.658945  0.035672  2.35731  0.056  -0.322524  -0.583918  0.056432  2.378491  0.081
O  O53  1  0.05451216  0.64438875  0.46125886  1  -0.634755  -0.080404  2.074115  -0.109  -0.61615  -0.047726  2.370797  -0.071  -0.658964  -0.035674  2.357321  -0.056  -0.322529  -0.583952  -0.056441  2.378519  -0.081
O  O54  1  0.44549834  0.64438820  0.96126056  1  -0.634738  0.080356  2.074388  0.109  -0.616019  0.047716  2.371038  0.071  -0.658847  0.035667  2.357595  0.056  -0.322502  -0.583826  0.056422  2.378771  0.081
O  O55  1  0.94548600  0.35560830  0.53873480  1  -0.634734  -0.080398  2.073964  -0.109  -0.616054  -0.047729  2.370641  -0.071  -0.658871  -0.035675  2.357167  -0.056  -0.322488  -0.583852  -0.056444  2.378358  -0.081
O  O56  1  0.55468458  0.22774960  0.18805716  1  -0.627365  -0.005479  1.965041  -0.007  -0.567187  -0.002822  2.171479  -0.004  -0.592398  -0.002069  2.159152  -0.003  -0.308823  -0.548798  -0.003851  2.179162  -0.005
O  O57  1  0.05468568  0.77224661  0.31194487  1  -0.627378  0.005479  1.96511  0.007  -0.567207  0.002822  2.171557  0.004  -0.592416  0.002069  2.159227  0.003  -0.308816  -0.54882  0.003851  2.179241  0.005
O  O58  1  0.44531646  0.77225463  0.81194652  1  -0.62735  -0.005487  1.96478  -0.007  -0.567172  -0.002822  2.171326  -0.004  -0.592367  -0.002068  2.158974  -0.003  -0.308859  -0.54878  -0.003851  2.179005  -0.005
O  O59  1  0.94531103  0.22774556  0.68804784  1  -0.6273  0.005493  1.965153  0.007  -0.567136  0.002822  2.171694  0.004  -0.592331  0.00207  2.15934  0.003  -0.308814  -0.548751  0.003852  2.179375  0.005
O  O60  1  0.29963224  0.54840005  0.19648122  1  -0.864328  0.058291  2.039325  0.077  -0.836079  0.043423  2.285956  0.061  -0.865545  0.034572  2.243122  0.051  -0.596707  -0.814051  0.048904  2.315815  0.067
O  O61  1  0.79964050  0.45159814  0.30351183  1  -0.864247  -0.058304  2.039467  -0.077  -0.836  -0.043428  2.286122  -0.061  -0.865459  -0.034576  2.24327  -0.051  -0.596617  -0.813956  -0.048911  2.315947  -0.067
O  O62  1  0.70036158  0.45159580  0.80351135  1  -0.864217  0.058305  2.039479  0.077  -0.835971  0.043429  2.286112  0.061  -0.865433  0.034577  2.243269  0.051  -0.596617  -0.813925  0.048911  2.315937  0.067
O  O63  1  0.20036777  0.54840258  0.69648169  1  -0.864315  -0.058289  2.039397  -0.077  -0.836059  -0.043419  2.286004  -0.061  -0.865532  -0.034569  2.24319  -0.051  -0.596694  -0.814026  -0.048899  2.315857  -0.067
O  O64  1  0.83862676  0.61001109  0.11200590  1  -0.798747  0.06161  1.955272  0.081  -0.769436  0.044377  2.171887  0.062  -0.799645  0.034901  2.134336  0.052  -0.581485  -0.748282  0.050087  2.19878  0.067
O  O65  1  0.33862245  0.38998958  0.38799110  1  -0.798777  -0.061598  1.955213  -0.081  -0.769445  -0.04437  2.171885  -0.062  -0.799646  -0.034896  2.134336  -0.052  -0.581493  -0.748293  -0.050085  2.198772  -0.067
O  O66  1  0.16137429  0.38999563  0.88799482  1  -0.798817  0.061605  1.955229  0.081  -0.769457  0.044372  2.171847  0.062  -0.799661  0.034897  2.134299  0.052  -0.581449  -0.748293  0.050081  2.198723  0.067
O  O67  1  0.66137715  0.61001100  0.61201101  1  -0.798852  -0.061608  1.955196  -0.081  -0.769523  -0.044377  2.171853  -0.062  -0.799725  -0.034901  2.134298  -0.052  -0.581528  -0.748369  -0.050093  2.198738  -0.067
