# generated using pymatgen
data_InH12C18N4ClO9
_symmetry_space_group_name_H-M   'P 1'
_cell_length_a   7.76248905
_cell_length_b   9.90262097
_cell_length_c   12.54066095
_cell_angle_alpha   90.55713886
_cell_angle_beta   92.68910162
_cell_angle_gamma   104.99248098
_symmetry_Int_Tables_number   1
_chemical_formula_structural   InH12C18N4ClO9
_chemical_formula_sum   'In2 H24 C36 N8 Cl2 O18'
_cell_volume   929.90940216
_cell_formula_units_Z   2
loop_
 _symmetry_equiv_pos_site_id
 _symmetry_equiv_pos_as_xyz
  1  'x, y, z'
loop_
 _atom_site_type_symbol
 _atom_site_label
 _atom_site_symmetry_multiplicity
 _atom_site_fract_x
 _atom_site_fract_y
 _atom_site_fract_z
 _atom_site_occupancy
 _atom_site_hle17_bader_spin_density
 _atom_site_hle17_ddec_charge
 _atom_site_hle17_ddec_spin_density
 _atom_site_hle17_ddec_sum_bond_order
 _atom_site_hle17_magmom
 _atom_site_hse06_10hf_bader_spin_density
 _atom_site_hse06_10hf_ddec_charge
 _atom_site_hse06_10hf_ddec_spin_density
 _atom_site_hse06_10hf_ddec_sum_bond_order
 _atom_site_hse06_10hf_magmom
 _atom_site_hse06_bader_spin_density
 _atom_site_hse06_ddec_charge
 _atom_site_hse06_ddec_spin_density
 _atom_site_hse06_ddec_sum_bond_order
 _atom_site_hse06_magmom
 _atom_site_pbe_bader_spin_density
 _atom_site_pbe_cm5_charge
 _atom_site_pbe_ddec_charge
 _atom_site_pbe_ddec_spin_density
 _atom_site_pbe_ddec_sum_bond_order
 _atom_site_pbe_magmom
In  In0  1  0.42733668  0.99424732  0.25517980  1  0  1.634158  0  2.24081  0  0  1.466247  0  2.713498  0  0  1.531731  0  2.657539  0  0  0.681561  1.420585  0  2.751153  0
In  In1  1  0.57266383  0.00575231  0.74482116  1  0  1.634164  0  2.240774  0  0  1.466254  0  2.713455  0  0  1.531739  0  2.657498  0  0  0.68155  1.420591  0  2.75111  0
H  H2  1  0.87649622  0.53629394  0.83369127  1  0  0.123991  0  0.931898  0  0  0.133634  0  0.99097  0  0  0.137309  0  0.988542  0  0  0.112898  0.130831  0  0.992915  0
H  H3  1  0.12350370  0.46370778  0.16630890  1  0  0.123997  0  0.931873  0  0  0.133637  0  0.990951  0  0  0.137315  0  0.98852  0  0  0.112903  0.130835  0  0.992896  0
H  H4  1  0.60030751  0.44058107  0.19022370  1  0  0.128602  0  0.934848  0  0  0.136339  0  0.997941  0  0  0.140198  0  0.995264  0  0  0.113106  0.133456  0  1.00005  0
H  H5  1  0.39969171  0.55941856  0.80977643  1  0  0.128596  0  0.934864  0  0  0.136334  0  0.997955  0  0  0.140193  0  0.995277  0  0  0.113101  0.133452  0  1.000064  0
H  H6  1  0.74962587  0.93135312  0.04841086  1  0  0.120175  0  0.927611  0  0  0.130543  0  0.984677  0  0  0.133558  0  0.980665  0  0  0.157837  0.128155  0  0.987349  0
H  H7  1  0.25037757  0.06864754  0.95159099  1  0  0.120175  0  0.927608  0  0  0.13054  0  0.984676  0  0  0.133556  0  0.98066  0  0  0.157823  0.128148  0  0.987346  0
H  H8  1  0.05844398  0.06855468  0.59810174  1  0  0.104686  0  0.954532  0  0  0.114981  0  1.015435  0  0  0.11734  0  1.011814  0  0  0.143882  0.112629  0  1.019  0
H  H9  1  0.94155617  0.93144390  0.40189920  1  0  0.104678  0  0.95456  0  0  0.114978  0  1.015462  0  0  0.117337  0  1.011842  0  0  0.143884  0.112625  0  1.019027  0
H  H10  1  0.11961759  0.57937316  0.67934574  1  0  0.123919  0  0.930051  0  0  0.134662  0  0.987264  0  0  0.137993  0  0.985878  0  0  0.112797  0.132304  0  0.988374  0
H  H11  1  0.88038386  0.42062542  0.32065444  1  0  0.123912  0  0.930038  0  0  0.134677  0  0.98723  0  0  0.138009  0  0.985841  0  0  0.112786  0.132317  0  0.988341  0
H  H12  1  0.37359230  0.43666480  0.34635912  1  0  0.130103  0  0.934414  0  0  0.137927  0  0.995976  0  0  0.142236  0  0.99244  0  0  0.115124  0.134788  0  0.998743  0
H  H13  1  0.62640692  0.56333483  0.65364101  1  0  0.130121  0  0.93442  0  0  0.137939  0  0.995983  0  0  0.142247  0  0.992449  0  0  0.115124  0.1348  0  0.99875  0
H  H14  1  0.85822293  0.81934932  0.89172320  1  0  0.32118  0  0.890922  0  0  0.300014  0  0.955505  0  0  0.308385  0  0.948495  0  0  0.308075  0.294017  0  0.960586  0
H  H15  1  0.14177829  0.18065240  0.10827780  1  0  0.321181  0  0.890961  0  0  0.300003  0  0.955535  0  0  0.308373  0  0.948528  0  0  0.30808  0.294006  0  0.960616  0
H  H16  1  0.00292963  0.27424726  0.70081151  1  0  0.347507  0  0.909064  0  0  0.319588  0  0.981467  0  0  0.329832  0  0.972352  0  0  0.316801  0.31244  0  0.987739  0
H  H17  1  0.99707217  0.72575237  0.29918949  1  0  0.347497  0  0.909088  0  0  0.319582  0  0.981483  0  0  0.329823  0  0.972371  0  0  0.316803  0.312437  0  0.987752  0
H  H18  1  0.75751912  0.03202049  0.32020075  1  0  0.404129  0  0.91807  0  0  0.372386  0  0.985458  0  0  0.384432  0  0.968426  0  0  0.285978  0.363461  0  0.998286  0
H  H19  1  0.24248209  0.96798123  0.67979865  1  0  0.404126  0  0.918082  0  0  0.37238  0  0.985471  0  0  0.384427  0  0.968439  0  0  0.285973  0.363457  0  0.998297  0
H  H20  1  0.75638507  0.04413033  0.19267094  1  0  0.402214  0  0.922112  0  0  0.369537  0  0.99019  0  0  0.381593  0  0.973204  0  0  0.284614  0.36119  0  1.00187  0
H  H21  1  0.24361391  0.95587244  0.80732762  1  0  0.402195  0  0.922153  0  0  0.369517  0  0.99022  0  0  0.38158  0  0.973227  0  0  0.284605  0.361171  0  1.001899  0
H  H22  1  0.62333202  0.73525966  0.18206190  1  0  0.345474  0  0.893896  0  0  0.317243  0  0.966869  0  0  0.327514  0  0.957806  0  0  0.317416  0.310087  0  0.97309  0
H  H23  1  0.37666848  0.26473997  0.81793826  1  0  0.345476  0  0.893884  0  0  0.317252  0  0.966847  0  0  0.327523  0  0.957783  0  0  0.317434  0.310095  0  0.973067  0
H  H24  1  0.23747986  0.16414549  0.43471069  1  0  0.328438  0  0.876365  0  0  0.306332  0  0.940645  0  0  0.314751  0  0.933589  0  0  0.318223  0.300417  0  0.945567  0
H  H25  1  0.76252158  0.83585309  0.56528949  1  0  0.328427  0  0.876447  0  0  0.306339  0  0.940707  0  0  0.314755  0  0.933653  0  0  0.318226  0.300425  0  0.945629  0
C  C26  1  0.31209606  0.79749415  0.57819237  1  0  0.699346  0  3.855343  0  0  0.645291  0  4.159649  0  0  0.682093  0  4.146813  0  0  0.226998  0.620478  0  4.167198  0
C  C27  1  0.68790245  0.20250339  0.42180692  1  0  0.699251  0  3.855517  0  0  0.645267  0  4.159721  0  0  0.682069  0  4.146882  0  0  0.226982  0.620455  0  4.167269  0
C  C28  1  0.78395044  0.26643454  0.87478767  1  0  0.678225  0  3.885616  0  0  0.623828  0  4.191931  0  0  0.659709  0  4.181262  0  0  0.220963  0.599564  0  4.198258  0
C  C29  1  0.21604913  0.73356614  0.12521088  1  0  0.678219  0  3.885806  0  0  0.623814  0  4.192086  0  0  0.659695  0  4.181421  0  0  0.220978  0.599549  0  4.198414  0
C  C30  1  0.77156619  0.38214484  0.95042757  1  0  -0.062688  0  3.708599  0  0  -0.054391  0  3.953559  0  0  -0.06061  0  3.975803  0  0  -0.011128  -0.050538  0  3.938832  0
C  C31  1  0.22843151  0.61785794  0.04957334  1  0  -0.062811  0  3.708699  0  0  -0.054449  0  3.953578  0  0  -0.06067  0  3.975824  0  0  -0.011115  -0.050598  0  3.938854  0
C  C32  1  0.81939929  0.51748917  0.91145861  1  0  -0.125676  0  3.692783  0  0  -0.156605  0  3.948413  0  0  -0.157303  0  3.966634  0  0  -0.075424  -0.155825  0  3.936029  0
C  C33  1  0.18060157  0.48251150  0.08854077  1  0  -0.125636  0  3.692758  0  0  -0.156599  0  3.948369  0  0  -0.157297  0  3.966588  0  0  -0.075439  -0.155819  0  3.935986  0
C  C34  1  0.66714194  0.21387591  0.10109737  1  0  0.683752  0  3.867829  0  0  0.632328  0  4.167148  0  0  0.668325  0  4.156223  0  0  0.224009  0.60808  0  4.173904  0
C  C35  1  0.33285505  0.78612478  0.89890191  1  0  0.683614  0  3.867968  0  0  0.632293  0  4.167119  0  0  0.668289  0  4.156191  0  0  0.223955  0.608042  0  4.173881  0
C  C36  1  0.69694980  0.35535850  0.05180156  1  0  -0.053894  0  3.710858  0  0  -0.045567  0  3.956236  0  0  -0.05067  0  3.977552  0  0  -0.009299  -0.042635  0  3.942358  0
C  C37  1  0.30304683  0.64464114  0.94819690  1  0  -0.053735  0  3.710831  0  0  -0.045454  0  3.956154  0  0  -0.050559  0  3.977478  0  0  -0.009254  -0.042523  0  3.942281  0
C  C38  1  0.66065224  0.46190615  0.11346773  1  0  -0.143055  0  3.686052  0  0  -0.1743  0  3.943818  0  0  -0.175592  0  3.961161  0  0  -0.080701  -0.173429  0  3.932739  0
C  C39  1  0.33934568  0.53809349  0.88653076  1  0  -0.143094  0  3.686109  0  0  -0.174351  0  3.943898  0  0  -0.175642  0  3.961242  0  0  -0.080721  -0.173479  0  3.932817  0
C  C40  1  0.70591451  0.59645698  0.07312337  1  0  0.16844  0  3.763244  0  0  0.157528  0  4.011452  0  0  0.161999  0  4.033167  0  0  0.10856  0.154096  0  3.997432  0
C  C41  1  0.29408471  0.40354265  0.92687676  1  0  0.168477  0  3.763265  0  0  0.157554  0  4.011483  0  0  0.162026  0  4.033198  0  0  0.108607  0.154122  0  3.997462  0
C  C42  1  0.78671895  0.62385333  0.97430585  1  0  0.158238  0  3.77119  0  0  0.147342  0  4.023532  0  0  0.150829  0  4.045042  0  0  0.106471  0.144932  0  4.00898  0
C  C43  1  0.21327898  0.37614631  0.02569504  1  0  0.158171  0  3.771329  0  0  0.147281  0  4.023621  0  0  0.150767  0  4.045132  0  0  0.106455  0.144872  0  4.009069  0
C  C44  1  0.75015425  0.82201498  0.04159169  1  0  0.332405  0  3.507543  0  0  0.253198  0  3.788559  0  0  0.27492  0  3.791434  0  0  0.206252  0.239228  0  3.785873  0
C  C45  1  0.24984825  0.17798673  0.95840935  1  0  0.332419  0  3.507547  0  0  0.253186  0  3.788561  0  0  0.274909  0  3.791437  0  0  0.206296  0.239222  0  3.785868  0
C  C46  1  0.10616292  0.17697599  0.57654377  1  0  0.342743  0  3.532637  0  0  0.259699  0  3.817594  0  0  0.282415  0  3.820199  0  0  0.204357  0.244694  0  3.816587  0
C  C47  1  0.89383958  0.82302572  0.42345727  1  0  0.342784  0  3.532517  0  0  0.259731  0  3.817503  0  0  0.282444  0  3.820107  0  0  0.20436  0.244731  0  3.816495  0
C  C48  1  0.23311107  0.36822672  0.49029320  1  0  0.153307  0  3.78525  0  0  0.14231  0  4.037452  0  0  0.144788  0  4.059638  0  0  0.105766  0.140666  0  4.022272  0
C  C49  1  0.76688780  0.63177187  0.50970691  1  0  0.153345  0  3.785233  0  0  0.142336  0  4.037423  0  0  0.144812  0  4.059609  0  0  0.105772  0.140692  0  4.022243  0
C  C50  1  0.15607865  0.40737582  0.58166558  1  0  0.172273  0  3.762933  0  0  0.159117  0  4.014681  0  0  0.164597  0  4.036243  0  0  0.107853  0.155246  0  4.000751  0
C  C51  1  0.84392315  0.59262380  0.41833542  1  0  0.172251  0  3.762986  0  0  0.159142  0  4.01468  0  0  0.164623  0  4.036241  0  0  0.107893  0.155275  0  4.000745  0
C  C52  1  0.17369290  0.54786127  0.60734529  1  0  -0.160329  0  3.697117  0  0  -0.188973  0  3.95421  0  0  -0.192454  0  3.973323  0  0  -0.082766  -0.187137  0  3.942148  0
C  C53  1  0.82630819  0.45213626  0.39265487  1  0  -0.160306  0  3.697079  0  0  -0.188978  0  3.954162  0  0  -0.192461  0  3.973273  0  0  -0.08277  -0.18714  0  3.942099  0
C  C54  1  0.26765211  0.64723261  0.53838836  1  0  -0.033509  0  3.684665  0  0  -0.026143  0  3.930908  0  0  -0.028744  0  3.950461  0  0  -0.004294  -0.024347  0  3.917854  0
C  C55  1  0.73234640  0.35276494  0.46161014  1  0  -0.033546  0  3.684755  0  0  -0.026202  0  3.931004  0  0  -0.0288  0  3.950554  0  0  -0.004316  -0.024413  0  3.917963  0
C  C56  1  0.33331429  0.60652658  0.44270062  1  0  -0.077298  0  3.72708  0  0  -0.069249  0  3.973114  0  0  -0.077041  0  3.996009  0  0  -0.016706  -0.06406  0  3.957447  0
C  C57  1  0.66668586  0.39347200  0.55729713  1  0  -0.077218  0  3.726994  0  0  -0.069193  0  3.973023  0  0  -0.076985  0  3.995919  0  0  -0.016672  -0.063998  0  3.957355  0
C  C58  1  0.31823807  0.46593936  0.41852436  1  0  -0.134729  0  3.717658  0  0  -0.165836  0  3.974085  0  0  -0.165497  0  3.99172  0  0  -0.078086  -0.16583  0  3.962025  0
C  C59  1  0.68176080  0.53405922  0.58147655  1  0  -0.134821  0  3.717715  0  0  -0.165911  0  3.974138  0  0  -0.165571  0  3.991775  0  0  -0.078125  -0.165905  0  3.962078  0
C  C60  1  0.41375823  0.71187090  0.36156327  1  0  0.664962  0  3.892008  0  0  0.611507  0  4.195112  0  0  0.646643  0  4.186802  0  0  0.215993  0.587651  0  4.200021  0
C  C61  1  0.58623970  0.28812873  0.63843841  1  0  0.665009  0  3.891957  0  0  0.6116  0  4.194995  0  0  0.646737  0  4.186683  0  0  0.216032  0.587741  0  4.199901  0
N  N62  1  0.81311605  0.76589033  0.95924226  1  0  -0.302368  0  3.39398  0  0  -0.242934  0  3.634182  0  0  -0.259424  0  3.643801  0  0  -0.35157  -0.231932  0  3.627305  0
N  N63  1  0.18688481  0.23411034  0.04075872  1  0  -0.302375  0  3.394089  0  0  -0.242865  0  3.634208  0  0  -0.259354  0  3.64383  0  0  -0.351573  -0.231867  0  3.627333  0
N  N64  1  0.68666064  0.72300924  0.11188624  1  0  -0.314095  0  3.351297  0  0  -0.250611  0  3.591298  0  0  -0.268712  0  3.601777  0  0  -0.348959  -0.238838  0  3.584363  0
N  N65  1  0.31334058  0.27699248  0.88811476  1  0  -0.314074  0  3.351225  0  0  -0.250604  0  3.591257  0  0  -0.268707  0  3.60174  0  0  -0.349029  -0.238831  0  3.584318  0
N  N66  1  0.20183841  0.22415155  0.49251645  1  0  -0.309913  0  3.394073  0  0  -0.24923  0  3.63509  0  0  -0.265838  0  3.644287  0  0  -0.357397  -0.238123  0  3.628793  0
N  N67  1  0.79816432  0.77584703  0.50748457  1  0  -0.309848  0  3.394127  0  0  -0.249189  0  3.63516  0  0  -0.265793  0  3.644358  0  0  -0.357373  -0.238086  0  3.62887  0
N  N68  1  0.07712937  0.28425614  0.63198692  1  0  -0.317373  0  3.327764  0  0  -0.251943  0  3.566945  0  0  -0.270043  0  3.575997  0  0  -0.347411  -0.239987  0  3.560809  0
N  N69  1  0.92287301  0.71574138  0.36801408  1  0  -0.31742  0  3.327825  0  0  -0.252001  0  3.567003  0  0  -0.270097  0  3.576055  0  0  -0.347436  -0.24005  0  3.560866  0
Cl  Cl70  1  0.14436183  0.06568334  0.26132626  1  0  -0.540045  0  0.888653  0  0  -0.496042  0  1.126596  0  0  -0.509609  0  1.104664  0  0  -0.214968  -0.486216  0  1.141284  0
Cl  Cl71  1  0.85563739  0.93431629  0.73867386  1  0  -0.540059  0  0.888664  0  0  -0.49605  0  1.126603  0  0  -0.509615  0  1.104668  0  0  -0.214968  -0.486222  0  1.141293  0
O  O72  1  0.47530062  0.84471580  0.61383079  1  0  -0.677865  0  2.015704  0  0  -0.617393  0  2.26576  0  0  -0.647446  0  2.255342  0  0  -0.30647  -0.596335  0  2.271924  0
O  O73  1  0.52469824  0.15528279  0.38616932  1  0  -0.677748  0  2.015786  0  0  -0.617303  0  2.265804  0  0  -0.647358  0  2.255387  0  0  -0.306403  -0.596245  0  2.271963  0
O  O74  1  0.65722905  0.15256689  0.87930756  1  0  -0.671929  0  2.037701  0  0  -0.609065  0  2.294634  0  0  -0.63928  0  2.283993  0  0  -0.303351  -0.588318  0  2.301303  0
O  O75  1  0.34277088  0.84743483  0.12069341  1  0  -0.671934  0  2.037676  0  0  -0.609073  0  2.294606  0  0  -0.639287  0  2.283964  0  0  -0.303375  -0.588325  0  2.301276  0
O  O76  1  0.70559647  0.97700185  0.25156279  1  0  -0.848491  0  1.963887  0  0  -0.790834  0  2.171994  0  0  -0.815488  0  2.139716  0  0  -0.560013  -0.773789  0  2.194275  0
O  O77  1  0.29440345  0.02299987  0.74843738  1  0  -0.848482  0  1.963951  0  0  -0.790815  0  2.172027  0  0  -0.815476  0  2.139734  0  0  -0.560002  -0.773773  0  2.194305  0
O  O78  1  0.90647465  0.29111677  0.81059781  1  0  -0.625422  0  2.016624  0  0  -0.582065  0  2.254588  0  0  -0.606055  0  2.247346  0  0  -0.310739  -0.56514  0  2.258874  0
O  O79  1  0.09352562  0.70888601  0.18939999  1  0  -0.625382  0  2.016732  0  0  -0.582036  0  2.254701  0  0  -0.606027  0  2.247462  0  0  -0.310755  -0.56511  0  2.25898  0
O  O80  1  0.79468160  0.15587142  0.10355838  1  0  -0.610177  0  1.968993  0  0  -0.561654  0  2.188834  0  0  -0.586185  0  2.179067  0  0  -0.313894  -0.544615  0  2.195082  0
O  O81  1  0.20531411  0.84412927  0.89644166  1  0  -0.610163  0  1.968996  0  0  -0.561654  0  2.188743  0  0  -0.586186  0  2.178974  0  0  -0.313878  -0.54461  0  2.194993  0
O  O82  1  0.51606322  0.16810421  0.14318225  1  0  -0.676168  0  2.057707  0  0  -0.615893  0  2.312643  0  0  -0.645966  0  2.303433  0  0  -0.30445  -0.594421  0  2.317559  0
O  O83  1  0.48393213  0.83189543  0.85681697  1  0  -0.676121  0  2.057753  0  0  -0.615878  0  2.312629  0  0  -0.64596  0  2.303435  0  0  -0.304423  -0.594407  0  2.317548  0
O  O84  1  0.49987319  0.67548302  0.28934044  1  0  -0.610539  0  1.987605  0  0  -0.56459  0  2.224137  0  0  -0.588115  0  2.217288  0  0  -0.306801  -0.548061  0  2.228119  0
O  O85  1  0.50012731  0.32451661  0.71065972  1  0  -0.610539  0  1.987669  0  0  -0.564609  0  2.224189  0  0  -0.588129  0  2.217325  0  0  -0.306807  -0.548082  0  2.228165  0
O  O86  1  0.37969190  0.83224010  0.37310657  1  0  -0.661479  0  2.057469  0  0  -0.595386  0  2.312349  0  0  -0.625306  0  2.302281  0  0  -0.298234  -0.574509  0  2.318425  0
O  O87  1  0.62030732  0.16775954  0.62689356  1  0  -0.661537  0  2.057424  0  0  -0.595476  0  2.312319  0  0  -0.625398  0  2.302251  0  0  -0.298274  -0.574598  0  2.318395  0
O  O88  1  0.18916123  0.85841043  0.58490330  1  0  -0.611228  0  1.974074  0  0  -0.562899  0  2.198597  0  0  -0.587832  0  2.188929  0  0  -0.312877  -0.544937  0  2.205118  0
O  O89  1  0.81083798  0.14158921  0.41509523  1  0  -0.611236  0  1.974086  0  0  -0.562916  0  2.19856  0  0  -0.587853  0  2.188897  0  0  -0.31291  -0.544954  0  2.20508  0
