# generated using pymatgen
data_Al2H11C20IO10
_symmetry_space_group_name_H-M   'P 1'
_cell_length_a   6.65104704
_cell_length_b   14.58452017
_cell_length_c   18.45112413
_cell_angle_alpha   78.75881916
_cell_angle_beta   90.98483491
_cell_angle_gamma   90.02196713
_symmetry_Int_Tables_number   1
_chemical_formula_structural   Al2H11C20IO10
_chemical_formula_sum   'Al4 H22 C40 I2 O20'
_cell_volume   1755.19785635
_cell_formula_units_Z   2
loop_
 _symmetry_equiv_pos_site_id
 _symmetry_equiv_pos_as_xyz
  1  'x, y, z'
loop_
 _atom_site_type_symbol
 _atom_site_label
 _atom_site_symmetry_multiplicity
 _atom_site_fract_x
 _atom_site_fract_y
 _atom_site_fract_z
 _atom_site_occupancy
 _atom_site_pbe_bader_charge
 _atom_site_pbe_bader_spin_density
 _atom_site_pbe_cm5_charge
 _atom_site_pbe_ddec_charge
 _atom_site_pbe_ddec_spin_density
 _atom_site_pbe_ddec_sum_bond_order
 _atom_site_pbe_magmom
Al  Al0  1  0.08681081  0.49997785  0.50322542  1  2.501812  0  0.398709  1.643244  0  2.58023  0
Al  Al1  1  0.58727179  0.50061232  0.49861272  1  2.501995  0  0.398368  1.645912  0  2.584617  0
Al  Al2  1  0.64843559  0.99995393  0.99681437  1  2.501282  0  0.39859  1.642651  0  2.580475  0
Al  Al3  1  0.14790513  0.99928117  0.00138190  1  2.501256  0  0.399014  1.645374  0  2.585894  0
H  H4  1  0.53697707  0.73011932  0.31272593  1  0.070025  0  0.106621  0.10808  0  1.002725  0
H  H5  1  0.57069090  0.84033823  0.19075418  1  0.09793  0  0.109145  0.112354  0  1.001183  0
H  H6  1  0.19779464  0.77027104  0.18742570  1  0.07954  0  0.106342  0.107213  0  1.003814  0
H  H7  1  0.16391491  0.66010515  0.30935547  1  0.108647  0  0.10919  0.112441  0  1.001337  0
H  H8  1  0.12582537  0.69823168  0.64684964  1  0.124344  0  0.110382  0.117463  0  0.995373  0
H  H9  1  0.51539117  0.60237811  0.67608295  1  0.097632  0  0.112377  0.120094  0  0.991535  0
H  H10  1  0.26167184  0.80991093  0.72169301  1  0.085262  0  0.102509  0.102861  0  1.012993  0
H  H11  1  0.47277154  0.69071327  0.77769550  1  0.067446  0  0.103011  0.103604  0  1.013619  0
H  H12  1  0.21946372  0.89819502  0.82340118  1  0.095532  0  0.11217  0.120343  0  0.990609  0
H  H13  1  0.60916680  0.80218545  0.85285107  1  0.10771  0  0.110429  0.116723  0  0.995248  0
H  H14  1  0.58599044  0.27785535  0.37476024  1  0.110019  0  0.094868  0.103729  0  1.050034  0
H  H15  1  0.04197082  0.42655039  0.29766213  1  0.12165  0  0.109154  0.127593  0  0.992641  0
H  H16  1  0.69320192  0.07277700  0.20271927  1  0.119987  0  0.109453  0.128071  0  0.99328  0
H  H17  1  0.14934043  0.22171083  0.12563583  1  0.084083  0  0.094693  0.103714  0  1.049986  0
H  H18  1  0.04621701  0.27506853  0.67754989  1  0.101037  0  0.110344  0.114502  0  0.998044  0
H  H19  1  0.06284992  0.16212150  0.79955017  1  0.074925  0  0.11128  0.116324  0  0.997572  0
H  H20  1  0.68953333  0.22485759  0.82247526  1  0.107321  0  0.110328  0.114926  0  0.997512  0
H  H21  1  0.67272203  0.33784749  0.70049755  1  0.089955  0  0.110947  0.115941  0  0.997089  0
H  H22  1  0.33172830  0.62171852  0.46848749  1  0.627703  0  0.355407  0.434349  0  0.847391  0
H  H23  1  0.83843267  0.38859843  0.47943147  1  0.625744  0  0.353485  0.432316  0  0.849322  0
H  H24  1  0.40347931  0.87817759  0.03136688  1  0.626226  0  0.356049  0.434782  0  0.846956  0
H  H25  1  0.89685410  0.11125161  0.02070938  1  0.623987  0  0.353827  0.432585  0  0.848631  0
C  C26  1  0.32490702  0.40579253  0.40551705  1  1.572692  0  0.268594  0.648474  0  4.086332  0
C  C27  1  0.35016899  0.38016319  0.61041373  1  1.563312  0  0.26997  0.640092  0  4.099503  0
C  C28  1  0.84226679  0.59387174  0.59451557  1  1.578333  0  0.270828  0.646088  0  4.093513  0
C  C29  1  0.83261148  0.62303970  0.39051394  1  1.592774  0  0.266218  0.641345  0  4.096856  0
C  C30  1  0.68057280  0.73896449  0.28460882  1  -0.067298  0  -0.079858  -0.092183  0  3.974482  0
C  C31  1  0.69933366  0.80009373  0.21709360  1  -0.03555  0  -0.080134  -0.093024  0  3.968418  0
C  C32  1  0.88603734  0.81148099  0.18209899  1  -0.03826  0  -0.010278  -0.036108  0  3.966036  0
C  C33  1  0.05410381  0.76140034  0.21544930  1  0.024388  0  -0.079913  -0.089557  0  3.975424  0
C  C34  1  0.03528078  0.70030383  0.28295745  1  -0.116602  0  -0.079944  -0.094222  0  3.968576  0
C  C35  1  0.84864997  0.68879570  0.31792277  1  0.021678  0  -0.009875  -0.032622  0  3.961192  0
C  C36  1  0.82420394  0.64599204  0.65588845  1  0.017519  0  -0.014557  -0.039178  0  3.993816  0
C  C37  1  0.91070310  0.85448411  0.84369743  1  0.010673  0  -0.013666  -0.037417  0  3.993025  0
C  C38  1  0.12027054  0.80724519  0.75113227  1  -0.042645  0  -0.087586  -0.133366  0  4.000392  0
C  C39  1  0.09711866  0.85652822  0.80685161  1  -0.037039  0  -0.084429  -0.100419  0  3.9887  0
C  C40  1  0.75141475  0.80276246  0.82414052  1  -0.083556  0  -0.074284  -0.135707  0  3.923648  0
C  C41  1  0.77315217  0.74917460  0.76848143  1  -0.023366  0  -0.002817  0.078553  0  3.999608  0
C  C42  1  0.96149556  0.75135500  0.73109698  1  -0.006764  0  -0.0043  0.0781  0  3.99896  0
C  C43  1  0.98342204  0.69771160  0.67549494  1  -0.067046  0  -0.073943  -0.136909  0  3.924909  0
C  C44  1  0.63764175  0.64407653  0.69264511  1  -0.08429  0  -0.08456  -0.098456  0  3.989492  0
C  C45  1  0.61432495  0.69337221  0.74833993  1  -0.041197  0  -0.088853  -0.135899  0  4.004629  0
C  C46  1  0.31636309  0.35590829  0.34211001  1  -0.036958  0  -0.011801  -0.014466  0  3.969514  0
C  C47  1  0.41903744  0.14360346  0.15820997  1  -0.032994  0  -0.011809  -0.013736  0  3.970562  0
C  C48  1  0.59161365  0.16970275  0.26862563  1  -0.273806  0  -0.045957  0.013644  0  3.903491  0
C  C49  1  0.58064968  0.12423382  0.20995720  1  0.024147  0  -0.093203  -0.14352  0  3.993431  0
C  C50  1  0.27379270  0.20867751  0.16548679  1  0.036652  0  -0.085165  -0.136896  0  3.944034  0
C  C51  1  0.28639123  0.25948565  0.22317690  1  0.025731  0  -0.009737  0.047794  0  3.982237  0
C  C52  1  0.44908918  0.23994604  0.27721053  1  0.010058  0  -0.008952  0.050207  0  3.981163  0
C  C53  1  0.46164234  0.29081382  0.33486640  1  -0.010204  0  -0.085914  -0.137928  0  3.944302  0
C  C54  1  0.15458310  0.37513727  0.29039109  1  0.026433  0  -0.092945  -0.142421  0  3.991643  0
C  C55  1  0.14368503  0.32965843  0.23175309  1  -0.25594  0  -0.044988  0.014992  0  3.904185  0
C  C56  1  0.18578431  0.26366174  0.70994901  1  -0.023701  0  -0.078266  -0.090737  0  3.970145  0
C  C57  1  0.19514021  0.20117388  0.77728881  1  -0.063704  0  -0.078601  -0.092787  0  3.965904  0
C  C58  1  0.37718835  0.18728207  0.81767104  1  0.04227  0  -0.008584  -0.037214  0  3.967412  0
C  C59  1  0.54988787  0.23628463  0.79012042  1  -0.05571  0  -0.079048  -0.093847  0  3.971437  0
C  C60  1  0.54045919  0.29880306  0.72277064  1  -0.086305  0  -0.076924  -0.089165  0  3.964037  0
C  C61  1  0.35841346  0.31270440  0.68241395  1  0.033051  0  -0.010017  -0.039381  0  3.968791  0
C  C62  1  0.38531907  0.11983670  0.88968735  1  1.570959  0  0.270908  0.641068  0  4.0966  0
C  C63  1  0.41054102  0.09389503  0.09466464  1  1.579349  0  0.267528  0.6465  0  4.081718  0
C  C64  1  0.90240858  0.87699865  0.10943352  1  1.588798  0  0.267277  0.643585  0  4.098692  0
C  C65  1  0.89283407  0.90632722  0.90528679  1  1.570042  0  0.270502  0.64494  0  4.091476  0
I  I66  1  0.82983378  0.13222760  0.34590438  1  0.106221  0  0.079425  -0.019622  0  1.405863  0
I  I67  1  0.90559479  0.36708107  0.15437700  1  0.101647  0  0.079578  -0.019573  0  1.405116  0
O  O68  1  0.51720859  0.41303775  0.58487478  1  -1.256354  0  -0.230881  -0.584727  0  2.368694  0
O  O69  1  0.15652254  0.43238261  0.42605063  1  -1.250584  0  -0.236381  -0.595526  0  2.350579  0
O  O70  1  0.99712941  0.60216813  0.42636193  1  -1.267228  0  -0.239883  -0.60903  0  2.367523  0
O  O71  1  0.17865402  0.40003167  0.57932498  1  -1.265756  0  -0.234709  -0.591197  0  2.334486  0
O  O72  1  0.01560708  0.56725292  0.57851844  1  -1.263823  0  -0.234692  -0.585957  0  2.314958  0
O  O73  1  0.49662211  0.41724012  0.43421423  1  -1.253112  0  -0.237703  -0.594808  0  2.316095  0
O  O74  1  0.33676807  0.55736722  0.49464488  1  -1.430397  0  -0.447553  -0.992586  0  2.20347  0
O  O75  1  0.67834851  0.58055502  0.56154779  1  -1.263946  0  -0.233743  -0.594144  0  2.373323  0
O  O76  1  0.65862544  0.59277610  0.41115024  1  -1.256154  0  -0.239468  -0.598025  0  2.314881  0
O  O77  1  0.83707427  0.44308906  0.50225588  1  -1.428591  0  -0.447137  -0.987677  0  2.190333  0
O  O78  1  0.23888365  0.08256398  0.06588824  1  -1.259737  0  -0.23737  -0.593764  0  2.312497  0
O  O79  1  0.55678311  0.09996893  0.92078134  1  -1.260645  0  -0.235171  -0.591699  0  2.333643  0
O  O80  1  0.71952438  0.93282412  0.92141497  1  -1.25546  0  -0.234801  -0.584874  0  2.315543  0
O  O81  1  0.57897175  0.06737595  0.07409670  1  -1.256608  0  -0.236087  -0.594791  0  2.348159  0
O  O82  1  0.73797264  0.89776248  0.07350683  1  -1.259348  0  -0.239857  -0.608971  0  2.368732  0
O  O83  1  0.21829858  0.08695144  0.91521290  1  -1.259354  0  -0.231318  -0.584008  0  2.3665  0
O  O84  1  0.39841587  0.94257604  0.00530742  1  -1.429487  0  -0.448463  -0.993283  0  2.204478  0
O  O85  1  0.07642950  0.90715726  0.08880787  1  -1.261139  0  -0.239909  -0.599124  0  2.317865  0
O  O86  1  0.05678765  0.91941457  0.93833008  1  -1.263697  0  -0.234052  -0.5944  0  2.370752  0
O  O87  1  0.89822094  0.05686720  0.99776335  1  -1.425422  0  -0.447429  -0.987622  0  2.189315  0
