# generated using pymatgen
data_Zn4H28C32Cl2O13
_symmetry_space_group_name_H-M   'P 1'
_cell_length_a   17.96578754
_cell_length_b   18.49354266
_cell_length_c   20.40528760
_cell_angle_alpha   60.99804076
_cell_angle_beta   62.64563078
_cell_angle_gamma   89.91338732
_symmetry_Int_Tables_number   1
_chemical_formula_structural   Zn4H28C32Cl2O13
_chemical_formula_sum   'Zn8 H56 C64 Cl4 O26'
_cell_volume   5048.32746053
_cell_formula_units_Z   2
loop_
 _symmetry_equiv_pos_site_id
 _symmetry_equiv_pos_as_xyz
  1  'x, y, z'
loop_
 _atom_site_type_symbol
 _atom_site_label
 _atom_site_symmetry_multiplicity
 _atom_site_fract_x
 _atom_site_fract_y
 _atom_site_fract_z
 _atom_site_occupancy
 _atom_site_pbe_bader_charge
 _atom_site_pbe_bader_spin_density
 _atom_site_pbe_cm5_charge
 _atom_site_pbe_ddec_charge
 _atom_site_pbe_ddec_spin_density
 _atom_site_pbe_ddec_sum_bond_order
 _atom_site_pbe_magmom
Zn  Zn0  1  0.13134478  0.54413379  0.92311205  1  1.31084  0  0.668004  0.953005  0  2.402423  0
Zn  Zn1  1  0.96033561  0.54866237  0.06838927  1  1.309862  0  0.669021  0.957951  0  2.376306  0
Zn  Zn2  1  0.96830247  0.37895942  0.06225847  1  1.297307  0  0.667394  0.949183  0  2.42133  0
Zn  Zn3  1  0.95626209  0.54406803  0.91283192  1  1.308871  0  0.670578  0.966076  0  2.336648  0
Zn  Zn4  1  0.37679561  0.96925564  0.06226276  1  1.300228  0  0.667573  0.951485  0  2.406531  0
Zn  Zn5  1  0.54482358  0.12945391  0.91897767  1  1.296587  0  0.667812  0.949436  0  2.417777  0
Zn  Zn6  1  0.54035167  0.95965866  0.91450453  1  1.309625  0  0.670029  0.959682  0  2.377636  0
Zn  Zn7  1  0.55404464  0.96098916  0.06759844  1  1.318184  0  0.670384  0.964913  0  2.337583  0
H  H8  1  0.42921695  0.82324556  0.34733319  1  0.115532  0  0.102836  0.11485  0  1.027689  0
H  H9  1  0.20306377  0.83787983  0.32379821  1  0.121945  0  0.112593  0.135328  0  0.989934  0
H  H10  1  0.08584661  0.68366659  0.63568726  1  0.131589  0  0.102496  0.114198  0  1.030437  0
H  H11  1  0.31170839  0.67058190  0.65973566  1  0.118143  0  0.11258  0.135476  0  0.989797  0
H  H12  1  0.67758502  0.08485528  0.63894626  1  0.107933  0  0.10278  0.114869  0  1.029248  0
H  H13  1  0.66628832  0.30866972  0.65430513  1  0.142899  0  0.11289  0.136382  0  0.988872  0
H  H14  1  0.82109907  0.42277375  0.34360724  1  0.123453  0  0.103027  0.115232  0  1.028367  0
H  H15  1  0.83266702  0.19896285  0.32819735  1  0.125682  0  0.113305  0.136413  0  0.988267  0
H  H16  1  0.21760082  0.31562374  0.88412580  1  0.028377  0  0.091289  0.085559  0  0.979554  0
H  H17  1  0.13179528  0.22837102  0.98672154  1  0.046995  0  0.093618  0.093586  0  0.983095  0
H  H18  1  0.22438320  0.13946930  0.98077990  1  0.055201  0  0.093364  0.093767  0  0.985326  0
H  H19  1  0.31057511  0.22824097  0.88005735  1  -0.009661  0  0.091726  0.087033  0  0.978316  0
H  H20  1  0.19970083  0.10896192  0.12469802  1  0.062284  0  0.093399  0.094322  0  0.9838  0
H  H21  1  0.27096491  0.17256063  0.12656394  1  0.006305  0  0.090641  0.084886  0  0.979036  0
H  H22  1  0.11060780  0.20146652  0.12830625  1  0.074854  0  0.093595  0.094781  0  0.984956  0
H  H23  1  0.18465707  0.26644958  0.12625220  1  0.002971  0  0.090113  0.084176  0  0.9792  0
H  H24  1  0.32324487  0.41106957  0.88066408  1  0.037445  0  0.090925  0.090465  0  0.983735  0
H  H25  1  0.30841332  0.39267353  0.97933617  1  0.022325  0  0.089997  0.087705  0  0.980508  0
H  H26  1  0.39683109  0.29963740  0.98141895  1  0.008356  0  0.089873  0.087409  0  0.982578  0
H  H27  1  0.41420720  0.32072935  0.88103198  1  0.02237  0  0.09087  0.090232  0  0.982876  0
H  H28  1  0.90866418  0.81667640  0.87635124  1  0.049492  0  0.091468  0.085952  0  0.978942  0
H  H29  1  0.88749198  0.79114407  0.98003176  1  0.029801  0  0.09261  0.091182  0  0.982993  0
H  H30  1  0.79859353  0.88359071  0.97911085  1  0.023954  0  0.092902  0.091096  0  0.983158  0
H  H31  1  0.81902547  0.90739570  0.87617734  1  0.018379  0  0.091762  0.086555  0  0.97792  0
H  H32  1  0.67281624  0.75846585  0.11965235  1  0.034398  0  0.092808  0.094265  0  0.986668  0
H  H33  1  0.60220579  0.69462751  0.11750952  1  0.002166  0  0.089624  0.083875  0  0.980905  0
H  H34  1  0.76082797  0.66500836  0.11984901  1  0.058696  0  0.093325  0.095561  0  0.988065  0
H  H35  1  0.69090433  0.60297131  0.11539773  1  0.022469  0  0.089315  0.083564  0  0.980093  0
H  H36  1  0.81003037  0.72688679  0.86890116  1  0.032651  0  0.090724  0.090367  0  0.984222  0
H  H37  1  0.72173362  0.63878303  0.96591837  1  0.019189  0  0.089437  0.086335  0  0.980082  0
H  H38  1  0.63087435  0.72913185  0.96863000  1  0.038522  0  0.089346  0.085884  0  0.981332  0
H  H39  1  0.71882616  0.81684609  0.87080562  1  0.04239  0  0.090964  0.091201  0  0.985559  0
H  H40  1  0.17740774  0.81058005  0.91709409  1  0.024549  0  0.091442  0.085723  0  0.979545  0
H  H41  1  0.26839453  0.78038321  0.86329576  1  0.050315  0  0.093928  0.093776  0  0.981964  0
H  H42  1  0.35876940  0.87539386  0.85903147  1  0.053773  0  0.094153  0.094226  0  0.981851  0
H  H43  1  0.26711253  0.90413611  0.91406039  1  0.02771  0  0.091624  0.086506  0  0.979624  0
H  H44  1  0.40156806  0.75068893  0.94527356  1  0.040598  0  0.093359  0.094909  0  0.985592  0
H  H45  1  0.34234063  0.69183580  0.06137114  1  0.00066  0  0.089691  0.083602  0  0.980683  0
H  H46  1  0.30962757  0.65437344  0.95187635  1  0.059512  0  0.093134  0.095128  0  0.985689  0
H  H47  1  0.24942611  0.59773495  0.06792785  1  0.023355  0  0.089626  0.083759  0  0.979912  0
H  H48  1  0.08919119  0.72701748  0.08460226  1  0.037037  0  0.090516  0.090413  0  0.984568  0
H  H49  1  0.11829531  0.63967110  0.14588638  1  0.019122  0  0.090254  0.087491  0  0.979527  0
H  H50  1  0.21020174  0.73300089  0.14185014  1  0.024321  0  0.090037  0.087335  0  0.981385  0
H  H51  1  0.18041321  0.82017823  0.08141236  1  0.013014  0  0.090602  0.09044  0  0.985802  0
H  H52  1  0.91486677  0.28156060  0.90588079  1  0.026697  0  0.091691  0.086642  0  0.979761  0
H  H53  1  0.87862233  0.36587983  0.84914957  1  0.034353  0  0.093706  0.092488  0  0.98023  0
H  H54  1  0.79325060  0.26740498  0.85258603  1  0.045071  0  0.093566  0.093647  0  0.984009  0
H  H55  1  0.82619882  0.18271412  0.91347382  1  0.036453  0  0.091015  0.085637  0  0.978619  0
H  H56  1  0.66254730  0.30816188  0.93116574  1  0.019094  0  0.093068  0.09423  0  0.986741  0
H  H57  1  0.59976969  0.24919786  0.04722291  1  0.018838  0  0.08946  0.083114  0  0.980754  0
H  H58  1  0.74832128  0.40291659  0.93174513  1  0.055181  0  0.092667  0.093843  0  0.986242  0
H  H59  1  0.68718186  0.34137692  0.04781073  1  0.010781  0  0.089189  0.083123  0  0.980567  0
H  H60  1  0.82802246  0.19202643  0.07341307  1  0.018631  0  0.090811  0.091084  0  0.986618  0
H  H61  1  0.73705396  0.21777200  0.13204744  1  0.019282  0  0.090053  0.086961  0  0.98045  0
H  H62  1  0.64494066  0.12556744  0.13516892  1  0.039372  0  0.089953  0.087882  0  0.980639  0
H  H63  1  0.73526310  0.09602915  0.08111381  1  0.046223  0  0.090593  0.0906  0  0.984249  0
C  C64  1  0.13919293  0.63772866  0.00328011  1  1.535688  0  0.234751  0.603095  0  4.096701  0
C  C65  1  0.87889495  0.37266799  0.22896469  1  1.547473  0  0.22719  0.601415  0  4.169587  0
C  C66  1  0.14725002  0.36575695  0.99775087  1  1.513524  0  0.233936  0.600746  0  4.103135  0
C  C67  1  0.86431764  0.36737406  0.98677033  1  1.539074  0  0.234573  0.602159  0  4.095146  0
C  C68  1  0.13563241  0.62502004  0.75483224  1  1.547584  0  0.228888  0.606909  0  4.157712  0
C  C69  1  0.86239323  0.64320084  0.98762594  1  1.543094  0  0.23705  0.606702  0  4.09079  0
C  C70  1  0.36535253  0.14581286  0.99470417  1  1.549606  0  0.234162  0.602156  0  4.09787  0
C  C71  1  0.61857645  0.13499823  0.75361297  1  1.541722  0  0.228308  0.60454  0  4.162613  0
C  C72  1  0.35936744  0.86409066  0.99509923  1  1.540777  0  0.234343  0.602399  0  4.098174  0
C  C73  1  0.64404573  0.86464967  0.98917798  1  1.555783  0  0.235034  0.604213  0  4.093721  0
C  C74  1  0.37824678  0.88360706  0.22841971  1  1.598346  0  0.227803  0.6048  0  4.159766  0
C  C75  1  0.64868549  0.13943646  0.99195231  1  1.553474  0  0.234363  0.602712  0  4.094664  0
C  C76  1  0.35848701  0.80854890  0.37842336  1  0.08257  0  -0.080676  -0.132821  0  3.926102  0
C  C77  1  0.23013084  0.81643548  0.36585385  1  0.004554  0  -0.089874  -0.167102  0  3.965064  0
C  C78  1  0.17645669  0.77195926  0.45586118  1  0.026269  0  0.018973  0.111553  0  4.025957  0
C  C79  1  0.21067012  0.74367271  0.51225726  1  0.04278  0  -0.00452  0.032218  0  3.971664  0
C  C80  1  0.15655096  0.69840041  0.60478282  1  0.005525  0  -0.081122  -0.131225  0  3.932864  0
C  C81  1  0.28465299  0.69134018  0.61767947  1  0.083789  0  -0.089637  -0.166355  0  3.965351  0
C  C82  1  0.33848109  0.73523658  0.52765741  1  0.012879  0  0.018257  0.109371  0  4.026412  0
C  C83  1  0.30448599  0.76330911  0.47104508  1  -0.081899  0  -0.004283  0.034145  0  3.965597  0
C  C84  1  0.32200313  0.83481575  0.32675309  1  -0.028683  0  -0.014269  -0.011594  0  3.976262  0
C  C85  1  0.19277992  0.67273463  0.65665509  1  -0.023651  0  -0.014656  -0.013937  0  3.981856  0
C  C86  1  0.69322964  0.15469576  0.60582487  1  0.036595  0  -0.08098  -0.132741  0  3.932336  0
C  C87  1  0.68709475  0.28166328  0.61394760  1  -0.050639  0  -0.090069  -0.169865  0  3.96852  0
C  C88  1  0.73230266  0.33429984  0.52364376  1  0.068835  0  0.018842  0.111995  0  4.025106  0
C  C89  1  0.76002913  0.30012007  0.46944865  1  -0.037301  0  -0.00438  0.033225  0  3.971809  0
C  C90  1  0.80561006  0.35294008  0.37672476  1  -0.008913  0  -0.080899  -0.132462  0  3.933979  0
C  C91  1  0.81181879  0.22595792  0.36855493  1  0.047998  0  -0.089626  -0.167342  0  3.964315  0
C  C92  1  0.76736586  0.17338186  0.45884792  1  0.013756  0  0.018542  0.110061  0  4.025266  0
C  C93  1  0.73941490  0.20756873  0.51307029  1  0.059971  0  -0.003985  0.034257  0  3.970013  0
C  C94  1  0.66737039  0.19102711  0.65532920  1  0.034966  0  -0.014311  -0.010745  0  3.982663  0
C  C95  1  0.83081159  0.31656076  0.32726458  1  -0.025041  0  -0.014087  -0.010535  0  3.98446  0
C  C96  1  0.20030271  0.26513058  0.95112338  1  -0.037697  0  -0.155934  -0.170729  0  3.855799  0
C  C97  1  0.26133747  0.20609211  0.94844411  1  -0.013941  0  -0.155903  -0.171127  0  3.856608  0
C  C98  1  0.30844559  0.20671811  0.99547577  1  0.024432  0  -0.017116  0.020304  0  3.812775  0
C  C99  1  0.23835810  0.17516104  0.09145537  1  -0.04778  0  -0.157393  -0.171654  0  3.856959  0
C  C100  1  0.17968162  0.23658130  0.09254853  1  -0.038865  0  -0.158004  -0.171384  0  3.858748  0
C  C101  1  0.20791123  0.30829550  0.99741315  1  0.07194  0  -0.016477  0.022339  0  3.816018  0
C  C102  1  0.30348036  0.35988041  0.94812828  1  -0.040359  0  -0.165012  -0.179301  0  3.890882  0
C  C103  1  0.36288942  0.29934049  0.94839143  1  0.027621  0  -0.164996  -0.176633  0  3.889252  0
C  C104  1  0.85618861  0.79348093  0.94401550  1  -0.052927  0  -0.154597  -0.168157  0  3.84717  0
C  C105  1  0.79666295  0.85439137  0.94391787  1  -0.009493  0  -0.15498  -0.169039  0  3.848926  0
C  C106  1  0.70111639  0.80341227  0.98877718  1  0.044077  0  -0.016709  0.02148  0  3.807245  0
C  C107  1  0.67083994  0.73007774  0.08389914  1  -0.013577  0  -0.159258  -0.173193  0  3.868595  0
C  C108  1  0.72973558  0.66890473  0.08329696  1  -0.034055  0  -0.160066  -0.174115  0  3.866257  0
C  C109  1  0.80169538  0.70100048  0.98779998  1  0.063212  0  -0.015975  0.020235  0  3.810203  0
C  C110  1  0.75883761  0.70444276  0.93664273  1  -0.017094  0  -0.163879  -0.176382  0  3.884383  0
C  C111  1  0.69871535  0.76446429  0.93790565  1  -0.050986  0  -0.163821  -0.176466  0  3.882456  0
C  C112  1  0.23261968  0.78656349  0.91991766  1  -0.04502  0  -0.155406  -0.169755  0  3.853046  0
C  C113  1  0.29262424  0.84912491  0.91739512  1  -0.04646  0  -0.15502  -0.169754  0  3.853864  0
C  C114  1  0.29839704  0.80114616  0.00091503  1  0.042156  0  -0.016694  0.020939  0  3.809536  0
C  C115  1  0.33558655  0.72508276  0.00359179  1  -0.003528  0  -0.160031  -0.174651  0  3.864395  0
C  C116  1  0.27455319  0.66216079  0.00743024  1  -0.059759  0  -0.158566  -0.172373  0  3.859782  0
C  C117  1  0.19647790  0.69606165  0.00553999  1  0.044466  0  -0.016519  0.020117  0  3.812231  0
C  C118  1  0.14543352  0.70403142  0.08503766  1  -0.006097  0  -0.164015  -0.176712  0  3.884928  0
C  C119  1  0.20605999  0.76593411  0.08255234  1  -0.00694  0  -0.164239  -0.177627  0  3.885241  0
C  C120  1  0.85624019  0.30103529  0.90829526  1  -0.034125  0  -0.154034  -0.169007  0  3.849077  0
C  C121  1  0.79811081  0.23613625  0.91141463  1  -0.040579  0  -0.154953  -0.169319  0  3.849158  0
C  C122  1  0.70499891  0.19887871  0.99397834  1  0.030396  0  -0.016082  0.021038  0  3.811531  0
C  C123  1  0.66694911  0.27493385  0.99020893  1  -0.002664  0  -0.15816  -0.170874  0  3.85731  0
C  C124  1  0.72479848  0.33727850  0.98993969  1  -0.02595  0  -0.159388  -0.173156  0  3.865762  0
C  C125  1  0.80395365  0.30549490  0.99072033  1  0.033927  0  -0.016132  0.021978  0  3.805034  0
C  C126  1  0.77140568  0.21437639  0.07347137  1  -0.004724  0  -0.164943  -0.176711  0  3.882771  0
C  C127  1  0.71096194  0.15177105  0.07658937  1  -0.04015  0  -0.164972  -0.180115  0  3.89222  0
Cl  Cl128  1  0.45048170  0.75666182  0.48263096  1  -0.205546  0  -0.014011  -0.088672  0  1.432691  0
Cl  Cl129  1  0.06439638  0.75023947  0.50108521  1  -0.214192  0  -0.014286  -0.089456  0  1.432027  0
Cl  Cl130  1  0.74497257  0.06273196  0.50736506  1  -0.208317  0  -0.013589  -0.088659  0  1.433628  0
Cl  Cl131  1  0.75572874  0.44496496  0.47514775  1  -0.212143  0  -0.013294  -0.088562  0  1.432407  0
O  O132  1  0.00321738  0.50524885  0.99073939  1  -1.208686  0  -0.572998  -1.027243  0  2.541367  0
O  O133  1  0.17857048  0.61878358  0.94583114  1  -1.170386  0  -0.317563  -0.552829  0  2.352267  0
O  O134  1  0.89271649  0.45392336  0.19389727  1  -1.153859  0  -0.312467  -0.537532  0  2.327689  0
O  O135  1  0.06542959  0.32768387  0.04401794  1  -1.176941  0  -0.316739  -0.549897  0  2.353779  0
O  O136  1  0.05688155  0.61385560  0.05673016  1  -1.17157  0  -0.312642  -0.545481  0  2.353601  0
O  O137  1  0.18200147  0.44701497  0.95119211  1  -1.166395  0  -0.313324  -0.546352  0  2.361214  0
O  O138  1  0.90190906  0.33374205  0.18863815  1  -1.173953  0  -0.312698  -0.538145  0  2.347334  0
O  O139  1  0.89469447  0.33302789  0.03675436  1  -1.168237  0  -0.315111  -0.548786  0  2.381797  0
O  O140  1  0.05309064  0.60825042  0.78809018  1  -1.181629  0  -0.312491  -0.540717  0  2.320257  0
O  O141  1  0.88147822  0.44822965  0.93310649  1  -1.176049  0  -0.315335  -0.550297  0  2.32132  0
O  O142  1  0.17532265  0.60531860  0.79671937  1  -1.173667  0  -0.314501  -0.54159  0  2.34145  0
O  O143  1  0.88865590  0.62445633  0.04097302  1  -1.189894  0  -0.318763  -0.55546  0  2.351805  0
O  O144  1  0.88324633  0.61899529  0.93420819  1  -1.180687  0  -0.313001  -0.547707  0  2.343797  0
O  O145  1  0.50469746  0.00320622  0.99180469  1  -1.207227  0  -0.572973  -1.025977  0  2.545459  0
O  O146  1  0.32619094  0.06623053  0.03519811  1  -1.179373  0  -0.317589  -0.552206  0  2.340691  0
O  O147  1  0.59498177  0.17395526  0.79394673  1  -1.162783  0  -0.313726  -0.540802  0  2.341294  0
O  O148  1  0.44038768  0.88828223  0.93647684  1  -1.180187  0  -0.317068  -0.55364  0  2.342254  0
O  O149  1  0.44763197  0.17829223  0.95362628  1  -1.166937  0  -0.313612  -0.546569  0  2.363781  0
O  O150  1  0.32505878  0.88877072  0.04814072  1  -1.169759  0  -0.312513  -0.543854  0  2.364776  0
O  O151  1  0.60476116  0.05372978  0.78879684  1  -1.184263  0  -0.311985  -0.537672  0  2.327738  0
O  O152  1  0.61700976  0.88766578  0.93613874  1  -1.176557  0  -0.312927  -0.546809  0  2.365341  0
O  O153  1  0.46050021  0.89440301  0.19405459  1  -1.179546  0  -0.312247  -0.537669  0  2.309297  0
O  O154  1  0.62853395  0.88887928  0.04207109  1  -1.183006  0  -0.317145  -0.554681  0  2.33557  0
O  O155  1  0.33781452  0.91032751  0.18742709  1  -1.172139  0  -0.313721  -0.542144  0  2.349125  0
O  O156  1  0.63261617  0.17583719  0.93026405  1  -1.172674  0  -0.319602  -0.553225  0  2.355622  0
O  O157  1  0.62250548  0.05886272  0.05026060  1  -1.185908  0  -0.311577  -0.546311  0  2.340855  0
