# generated using pymatgen
data_ZnH26C37(NO10)2
_symmetry_space_group_name_H-M   'P 1'
_cell_length_a   14.89741476
_cell_length_b   15.01459817
_cell_length_c   22.42907831
_cell_angle_alpha   90.89221534
_cell_angle_beta   73.46164218
_cell_angle_gamma   82.70560222
_symmetry_Int_Tables_number   1
_chemical_formula_structural   ZnH26C37(NO10)2
_chemical_formula_sum   'Zn2 H52 C74 N4 O40'
_cell_volume   4763.37147005
_cell_formula_units_Z   2
loop_
 _symmetry_equiv_pos_site_id
 _symmetry_equiv_pos_as_xyz
  1  'x, y, z'
loop_
 _atom_site_type_symbol
 _atom_site_label
 _atom_site_symmetry_multiplicity
 _atom_site_fract_x
 _atom_site_fract_y
 _atom_site_fract_z
 _atom_site_occupancy
 _atom_site_pbe_bader_charge
 _atom_site_pbe_bader_spin_density
 _atom_site_pbe_cm5_charge
 _atom_site_pbe_ddec_charge
 _atom_site_pbe_ddec_spin_density
 _atom_site_pbe_ddec_sum_bond_order
 _atom_site_pbe_magmom
Zn  Zn0  1  0.60861474  0.50222501  0.46590583  1  1.328058  0  0.723584  0.923471  0  2.303415  0
Zn  Zn1  1  0.37297350  0.44523755  0.53884068  1  1.309011  0  0.726565  0.911669  0  2.283748  0
H  H2  1  0.67500755  0.67039025  0.45278150  1  0.142961  0  0.124322  0.113286  0  1.03151  0
H  H3  1  0.18599729  0.87628652  0.73522009  1  0.070619  0  0.094953  0.09521  0  1.006278  0
H  H4  1  0.16246563  0.76957027  0.70892056  1  0.026675  0  0.0942  0.096788  0  1.004684  0
H  H5  1  0.07286878  0.86583397  0.72436443  1  0.089433  0  0.103003  0.107388  0  0.97546  0
H  H6  1  0.52896366  0.80665670  0.63340746  1  0.11318  0  0.100688  0.107289  0  1.008131  0
H  H7  1  0.64520452  0.80430261  0.64236020  1  0.05611  0  0.097075  0.096604  0  0.997272  0
H  H8  1  0.61629680  0.71109937  0.60397182  1  0.100999  0  0.101234  0.113948  0  1.000623  0
H  H9  1  0.44978087  0.23268436  0.62926568  1  0.060449  0  0.095953  0.102733  0  1.026328  0
H  H10  1  0.48657226  0.13360718  0.66494904  1  0.066948  0  0.101265  0.103127  0  0.988177  0
H  H11  1  0.39083823  0.21531845  0.70875670  1  0.056362  0  0.106944  0.115751  0  0.968642  0
H  H12  1  0.84783569  0.39488535  0.71747017  1  0.68682  0  0.31352  0.373379  0  0.950766  0
H  H13  1  0.26442709  0.32860951  0.63126814  1  0.118812  0  0.125945  0.118902  0  1.012442  0
H  H14  1  0.04120564  0.75471650  0.48113311  1  0.607963  0  0.348456  0.372011  0  0.855607  0
H  H15  1  0.82068124  0.39058052  0.53965880  1  0.630745  0  0.323441  0.354215  0  0.921033  0
H  H16  1  0.16788462  0.52909316  0.47034220  1  0.616856  0  0.32849  0.364703  0  0.906504  0
H  H17  1  0.14725008  0.25962764  0.68857911  1  0.616686  0  0.342124  0.366401  0  0.873602  0
H  H18  1  0.75875875  0.78980486  0.44939190  1  0.634512  0  0.342395  0.376867  0  0.867545  0
H  H19  1  0.98923564  0.39121184  0.85894620  1  0.100134  0  0.100579  0.110472  0  1.0192  0
H  H20  1  0.99493798  0.48257880  0.80744214  1  0.031169  0  0.09763  0.096237  0  0.984484  0
H  H21  1  0.00893760  0.36901946  0.77658004  1  0.12374  0  0.10346  0.120747  0  1.031491  0
H  H22  1  0.47866422  0.79058465  0.12893130  1  0.144432  0  0.109814  0.128984  0  0.996503  0
H  H23  1  0.44546202  0.70336635  0.08786529  1  0.06214  0  0.103829  0.10998  0  1.001598  0
H  H24  1  0.81123060  0.43855142  0.62448892  1  0.122723  0  0.115855  0.141837  0  1.021147  0
H  H25  1  0.38271064  0.81565133  0.09460315  1  0.055139  0  0.106845  0.108424  0  0.97616  0
H  H26  1  0.40264483  0.52876099  0.87244953  1  0.614401  0  0.33556  0.376409  0  0.875511  0
H  H27  1  0.86478344  0.53948663  0.18168626  1  0.638761  0  0.332734  0.370552  0  0.883793  0
H  H28  1  0.31379524  0.45719710  0.77116879  1  0.639552  0  0.299315  0.358309  0  0.963602  0
H  H29  1  0.74950346  0.51263546  0.31863211  1  0.631846  0  0.30331  0.36522  0  0.956639  0
H  H30  1  0.53076558  0.45717275  0.59039892  1  0.668028  0  0.297672  0.344175  0  0.995762  0
H  H31  1  0.44846445  0.53466812  0.32161141  1  0.632352  0  0.297072  0.358682  0  0.966121  0
H  H32  1  0.68860755  0.55787484  0.61363873  1  0.592488  0  0.313543  0.337302  0  0.952474  0
H  H33  1  0.44447919  0.56160428  0.18354119  1  0.620075  0  0.33272  0.372696  0  0.881291  0
H  H34  1  0.79453979  0.82524374  0.56075800  1  0.069423  0  0.096842  0.100405  0  1.036366  0
H  H35  1  0.09516759  0.63188267  0.51808315  1  0.080851  0  0.112429  0.12552  0  1.021331  0
H  H36  1  0.74403822  0.92225539  0.61329932  1  0.041906  0  0.098269  0.093586  0  0.997229  0
H  H37  1  0.86316843  0.91385588  0.56328832  1  0.053434  0  0.102584  0.105325  0  0.983405  0
H  H38  1  0.12928269  0.03431474  0.64105235  1  0.076093  0  0.093274  0.093315  0  1.011115  0
H  H39  1  0.19203209  0.12946691  0.63897902  1  0.001742  0  0.088851  0.074204  0  1.050104  0
H  H40  1  0.11468773  0.10029960  0.71146285  1  0.062416  0  0.106962  0.114761  0  0.968958  0
H  H41  1  0.58438084  0.75979487  0.38667059  1  0.0679  0  0.108096  0.115907  0  0.96905  0
H  H42  1  0.46696120  0.81934211  0.41444078  1  0.056047  0  0.098352  0.098528  0  0.982916  0
H  H43  1  0.48772300  0.69905729  0.41945193  1  0.07773  0  0.095714  0.103464  0  1.025732  0
H  H44  1  0.37249870  0.11309642  0.47677428  1  0.063095  0  0.093336  0.090332  0  0.996638  0
H  H45  1  0.38937037  0.22295601  0.44683484  1  0.096988  0  0.097456  0.105897  0  1.00048  0
H  H46  1  0.84627017  0.39973425  0.99259790  1  0.649555  0  0.307371  0.351856  0  0.969611  0
H  H47  1  0.28720012  0.20953877  0.50992205  1  0.04105  0  0.099924  0.105605  0  0.987892  0
H  H48  1  0.26620045  0.64019331  0.57608042  1  0.654972  0  0.299294  0.344939  0  0.989695  0
H  H49  1  0.78350474  0.20444654  0.40710179  1  0.619903  0  0.327045  0.350273  0  0.909539  0
H  H50  1  0.48363803  0.84196289  0.95952795  1  0.640133  0  0.331695  0.350513  0  0.912915  0
H  H51  1  0.83857264  0.07200304  0.52800714  1  0.078146  0  0.099116  0.102076  0  1.01983  0
H  H52  1  0.84140584  0.18216537  0.49765388  1  0.021515  0  0.092448  0.086441  0  1.005888  0
H  H53  1  0.92644600  0.08899818  0.45700289  1  0.062388  0  0.107983  0.116289  0  0.969734  0
C  C54  1  0.53476976  0.32913549  0.48025321  1  1.559732  0  0.22815  0.642247  0  4.12518  0
C  C55  1  0.54533751  0.54308535  0.24726157  1  0.593214  0  0.058324  0.184302  0  4.146764  0
C  C56  1  0.60462388  0.54481727  0.69258769  1  0.499318  0  0.055839  0.116801  0  4.10853  0
C  C57  1  0.57198911  0.55560714  0.18345472  1  0.604012  0  0.05565  0.110815  0  4.105925  0
C  C58  1  0.57829957  0.55587667  0.75728477  1  0.461859  0  0.074351  0.018081  0  4.030872  0
C  C59  1  0.66732088  0.55825527  0.15137875  1  0.314559  0  0.073617  0.00646  0  4.013802  0
C  C60  1  0.56639366  0.23217961  0.48342755  1  -0.004497  0  -0.036135  -0.24031  0  3.959525  0
C  C61  1  0.39224894  0.72679310  0.54640915  1  -0.001848  0  -0.053451  -0.30372  0  3.988412  0
C  C62  1  0.69821972  0.11372604  0.47589326  1  0.499385  0  0.051708  0.055349  0  4.049357  0
C  C63  1  0.27247432  0.84279500  0.61304997  1  0.569734  0  0.056617  0.078904  0  4.031789  0
C  C64  1  0.66377152  0.19870297  0.46126903  1  0.541496  0  0.079897  0.217517  0  4.106857  0
C  C65  1  0.42429761  0.63096873  0.52648569  1  1.527519  0  0.225187  0.639573  0  4.127935  0
C  C66  1  0.29893638  0.75484329  0.58684154  1  0.521729  0  0.076472  0.217197  0  4.08761  0
C  C67  1  0.50423301  0.17557880  0.51725235  1  0.5527  0  0.091284  0.205126  0  4.01295  0
C  C68  1  0.45504960  0.79145506  0.53151660  1  0.4936  0  0.096703  0.238197  0  3.970872  0
C  C69  1  0.39521339  0.44346553  0.66920351  1  1.502178  0  0.207885  0.613191  0  4.165765  0
C  C70  1  0.58413557  0.52118763  0.34686980  1  1.481219  0  0.203273  0.598604  0  4.183098  0
C  C71  1  0.53729100  0.08977753  0.53454043  1  -0.011198  0  -0.022986  -0.078187  0  4.002848  0
C  C72  1  0.43488977  0.87567169  0.56521693  1  -0.016856  0  -0.025882  -0.083899  0  4.020713  0
C  C73  1  0.63699241  0.05725988  0.51176906  1  0.025717  0  -0.013809  -0.057169  0  4.033952  0
C  C74  1  0.33988420  0.90390163  0.60410063  1  0.024283  0  -0.01652  -0.072217  0  4.050752  0
C  C75  1  0.47285930  0.03060160  0.56788530  1  0.042375  0  -0.016028  -0.045715  0  3.992931  0
C  C76  1  0.49064046  0.53434051  0.79322803  1  0.519613  0  0.058325  0.112946  0  4.092932  0
C  C77  1  0.50387608  0.93688085  0.55699288  1  0.043235  0  -0.013457  -0.023904  0  4.009199  0
C  C78  1  0.60338748  0.90785993  0.54427388  1  0.509835  0  0.067585  0.085055  0  4.060038  0
C  C79  1  0.38259140  0.05587212  0.61358547  1  0.483595  0  0.080936  0.111307  0  4.032198  0
C  C80  1  0.66851785  0.96796384  0.52629693  1  0.553529  0  0.06841  0.097496  0  4.046575  0
C  C81  1  0.31932937  0.99338701  0.63191702  1  0.576187  0  0.063226  0.095088  0  4.027048  0
C  C82  1  0.11589801  0.35198577  0.63726039  1  0.463016  0  0.085864  0.2295  0  4.077424  0
C  C83  1  0.80944971  0.67491905  0.46989134  1  0.536582  0  0.086726  0.238512  0  4.081407  0
C  C84  1  0.20988288  0.36298801  0.61292238  1  0.550332  0  0.02067  -0.06288  0  3.997499  0
C  C85  1  0.73171508  0.63444591  0.46842629  1  0.463659  0  0.017146  -0.067833  0  3.981875  0
C  C86  1  0.17669965  0.46284168  0.54145388  1  1.07831  0  0.212636  0.398069  0  4.063388  0
C  C87  1  0.73702488  0.54638467  0.18233281  1  0.605142  0  0.061969  0.124924  0  4.109569  0
C  C88  1  0.78313315  0.50456520  0.51105281  1  1.117715  0  0.210893  0.382299  0  4.082995  0
C  C89  1  0.07787051  0.46443285  0.56734003  1  0.036535  0  -0.014726  -0.113387  0  3.998348  0
C  C90  1  0.85936481  0.54421247  0.52218928  1  -0.004294  0  -0.011956  -0.108563  0  3.968651  0
C  C91  1  0.04615660  0.40414133  0.61528762  1  0.041689  0  -0.001792  -0.072257  0  3.911258  0
C  C92  1  0.87853851  0.62796071  0.49508725  1  0.045278  0  -0.002376  -0.068028  0  3.916611  0
C  C93  1  0.64847877  0.66122887  0.07222323  1  1.337872  0  0.247861  0.460489  0  4.049067  0
C  C94  1  0.71480326  0.52465389  0.79615675  1  1.327774  0  0.253482  0.480319  0  4.039302  0
C  C95  1  0.01135504  0.52220709  0.54470164  1  0.061559  0  -0.013951  0.063316  0  4.036967  0
C  C96  1  0.91901024  0.49925075  0.55640479  1  0.031573  0  -0.00902  0.067529  0  4.020098  0
C  C97  1  0.88683609  0.44127830  0.60532798  1  -0.083379  0  -0.120184  -0.332958  0  3.994419  0
C  C98  1  0.42981456  0.49974096  0.76434682  1  0.56867  0  0.062079  0.188778  0  4.142586  0
C  C99  1  0.03130682  0.60441222  0.51638171  1  -0.078055  0  -0.123057  -0.339763  0  4.049227  0
C  C100  1  0.94545629  0.40274572  0.63905992  1  0.566193  0  0.100657  0.327334  0  4.040603  0
C  C101  1  0.96525219  0.65924538  0.49625055  1  0.495215  0  0.090218  0.300349  0  4.065419  0
C  C102  1  0.74512281  0.51182277  0.04208102  1  1.299149  0  0.24706  0.4571  0  4.068264  0
C  C103  1  0.60546233  0.67040913  0.82450765  1  1.315198  0  0.242946  0.471722  0  4.066549  0
C  C104  1  0.75308910  0.52974461  0.97722583  1  0.02742  0  -0.033484  -0.21232  0  4.051756  0
C  C105  1  0.62493633  0.67494449  0.88489430  1  0.060924  0  -0.020575  -0.171093  0  3.984491  0
C  C106  1  0.69364127  0.60151429  0.96178327  1  -0.042901  0  -0.007618  0.044216  0  4.052335  0
C  C107  1  0.68692830  0.60473943  0.90000566  1  0.006902  0  -0.006335  0.036709  0  4.035645  0
C  C108  1  0.63771970  0.66662561  0.00903921  1  0.06388  0  -0.01817  -0.16455  0  4.003047  0
C  C109  1  0.71063007  0.53134977  0.24613089  1  0.532484  0  0.061892  0.184979  0  4.120547  0
C  C110  1  0.74288361  0.53766958  0.85355095  1  0.006072  0  -0.017092  -0.172661  0  3.958498  0
C  C111  1  0.81338169  0.46832442  0.93077267  1  0.645151  0  0.100022  0.221291  0  4.049314  0
C  C112  1  0.57356471  0.74131592  0.93055763  1  0.554541  0  0.099369  0.222511  0  4.043784  0
C  C113  1  0.81330213  0.47678268  0.86710706  1  0.591293  0  0.103076  0.161284  0  3.980113  0
C  C114  1  0.57684643  0.73480857  0.99345358  1  0.537865  0  0.09155  0.128559  0  4.024254  0
C  C115  1  0.85325405  0.10933279  0.48539249  1  0.37596  0  -0.140424  -0.178683  0  3.92235  0
C  C116  1  0.14904346  0.84305101  0.70699542  1  0.362741  0  -0.141701  -0.172194  0  3.91333  0
C  C117  1  0.60443860  0.78432380  0.61164944  1  0.285908  0  -0.13686  -0.16261  0  3.852592  0
C  C118  1  0.42583755  0.18186343  0.66267264  1  0.385911  0  -0.136501  -0.165144  0  3.878826  0
C  C119  1  0.97345232  0.41547408  0.81674675  1  0.328105  0  -0.140858  -0.182959  0  3.857242  0
C  C120  1  0.45788870  0.48331856  0.69899553  1  0.038172  0  -0.061017  -0.296068  0  4.07335  0
C  C121  1  0.45130442  0.77540324  0.09009652  1  0.331903  0  -0.132168  -0.170284  0  3.856158  0
C  C122  1  0.79186700  0.89805517  0.56722766  1  0.393253  0  -0.141108  -0.178955  0  3.913198  0
C  C123  1  0.16486552  0.07381569  0.66688975  1  0.411236  0  -0.142762  -0.173327  0  3.935457  0
C  C124  1  0.51601132  0.76255735  0.42231043  1  0.347936  0  -0.138536  -0.170067  0  3.885945  0
C  C125  1  0.36254674  0.18587605  0.48864152  1  0.34974  0  -0.140259  -0.163635  0  3.899647  0
C  C126  1  0.61465617  0.53090178  0.27939216  1  -0.015511  0  -0.059516  -0.293881  0  4.079838  0
C  C127  1  0.54601366  0.50600978  0.66390792  1  0.505614  0  0.058074  0.187706  0  4.122409  0
N  N128  1  0.68883635  0.57593622  0.08674482  1  -1.18866  0  -0.224023  -0.148897  0  3.560157  0
N  N129  1  0.63859817  0.58540101  0.79080214  1  -1.143316  0  -0.233018  -0.194974  0  3.580682  0
N  N130  1  0.23922058  0.41695737  0.56537038  1  -1.280591  0  -0.346329  -0.313533  0  3.618138  0
N  N131  1  0.72125266  0.54927470  0.48583141  1  -1.266718  0  -0.338824  -0.30732  0  3.57498  0
O  O132  1  0.59300639  0.38061659  0.48790197  1  -1.154023  0  -0.310224  -0.53409  0  2.422607  0
O  O133  1  0.74649491  0.46042023  0.75705142  1  -1.128596  0  -0.274631  -0.468582  0  2.20662  0
O  O134  1  0.78518852  0.44105156  0.05745299  1  -1.107553  0  -0.273167  -0.443779  0  2.133429  0
O  O135  1  0.55947616  0.72881532  0.80366796  1  -1.078088  0  -0.269372  -0.414468  0  2.064973  0
O  O136  1  0.86684300  0.39781696  0.94467503  1  -1.141303  0  -0.327822  -0.406563  0  2.301158  0
O  O137  1  0.51463827  0.80979995  0.91873054  1  -1.119816  0  -0.324074  -0.380309  0  2.303934  0
O  O138  1  0.79424407  0.08746486  0.44763513  1  -1.059213  0  -0.211878  -0.191368  0  2.545596  0
O  O139  1  0.17831282  0.86949348  0.64360642  1  -1.076979  0  -0.214522  -0.184763  0  2.569165  0
O  O140  1  0.63790298  0.82063253  0.55115952  1  -1.069644  0  -0.197528  -0.185725  0  2.66502  0
O  O141  1  0.35556591  0.13666984  0.64669048  1  -1.070232  0  -0.191365  -0.162883  0  2.644062  0
O  O142  1  0.91263969  0.36514680  0.69337067  1  -1.167075  0  -0.33427  -0.425898  0  2.33226  0
O  O143  1  0.35957221  0.57775173  0.53604373  1  -1.16179  0  -0.316785  -0.563598  0  2.404292  0
O  O144  1  0.98058275  0.74280728  0.47654795  1  -1.094345  0  -0.331197  -0.409302  0  2.283941  0
O  O145  1  0.77153542  0.41795605  0.52183705  1  -1.132663  0  -0.326875  -0.421676  0  2.321079  0
O  O146  1  0.21678279  0.50440744  0.48917353  1  -1.123653  0  -0.332124  -0.438786  0  2.288293  0
O  O147  1  0.09007957  0.29156244  0.68157905  1  -1.113237  0  -0.330353  -0.410888  0  2.335056  0
O  O148  1  0.82071629  0.75782646  0.44802576  1  -1.11825  0  -0.338706  -0.417755  0  2.318748  0
O  O149  1  0.87360831  0.42005507  0.82191481  1  -1.067136  0  -0.179608  -0.138717  0  2.585838  0
O  O150  1  0.51435433  0.79977878  0.03233017  1  -1.082467  0  -0.185926  -0.167267  0  2.59568  0
O  O151  1  0.46574954  0.54654521  0.85683601  1  -1.148865  0  -0.356831  -0.433075  0  2.270353  0
O  O152  1  0.82934731  0.55158786  0.15138014  1  -1.129889  0  -0.356747  -0.422949  0  2.271914  0
O  O153  1  0.34554610  0.48107521  0.80146733  1  -1.158707  0  -0.37098  -0.470608  0  2.268775  0
O  O154  1  0.45250057  0.35638670  0.47527592  1  -1.159483  0  -0.317861  -0.55237  0  2.363064  0
O  O155  1  0.78196603  0.51984268  0.27342156  1  -1.155545  0  -0.373807  -0.47225  0  2.271353  0
O  O156  1  0.57933866  0.49080819  0.60113826  1  -1.189923  0  -0.366512  -0.472923  0  2.431098  0
O  O157  1  0.45153417  0.54353536  0.27611694  1  -1.164604  0  -0.374155  -0.476147  0  2.268686  0
O  O158  1  0.68776792  0.57000329  0.65683764  1  -1.11332  0  -0.357029  -0.421963  0  2.324199  0
O  O159  1  0.50449461  0.56665224  0.15228431  1  -1.141211  0  -0.35931  -0.442096  0  2.284813  0
O  O160  1  0.76314202  0.94507015  0.51875694  1  -1.075374  0  -0.191604  -0.149138  0  2.609564  0
O  O161  1  0.23995483  0.01725608  0.68142121  1  -1.073974  0  -0.206599  -0.172852  0  2.588124  0
O  O162  1  0.53454179  0.77760160  0.48116583  1  -1.05793  0  -0.197963  -0.191498  0  2.616636  0
O  O163  1  0.40854131  0.20398352  0.53502032  1  -1.084071  0  -0.203898  -0.198944  0  2.635022  0
O  O164  1  0.23245969  0.69864238  0.59885142  1  -1.16304  0  -0.360098  -0.438872  0  2.302997  0
O  O165  1  0.51167323  0.60405919  0.50492798  1  -1.192443  0  -0.310172  -0.55482  0  2.477045  0
O  O166  1  0.72468574  0.24672711  0.42225390  1  -1.122229  0  -0.344669  -0.406111  0  2.291424  0
O  O167  1  0.42916762  0.42422742  0.60873550  1  -1.184911  0  -0.338786  -0.592939  0  2.380054  0
O  O168  1  0.49791997  0.52303516  0.37631161  1  -1.163249  0  -0.311774  -0.533605  0  2.133232  0
O  O169  1  0.31478029  0.42766843  0.70080435  1  -1.164033  0  -0.315352  -0.535891  0  2.111284  0
O  O170  1  0.65089569  0.51219794  0.37493874  1  -1.17649  0  -0.32921  -0.5723  0  2.335322  0
O  O171  1  0.62461553  0.72355819  0.11193694  1  -1.087375  0  -0.26247  -0.423037  0  2.113925  0
