# generated using pymatgen
data_LiH5C5N2O3
_symmetry_space_group_name_H-M   'P 1'
_cell_length_a   4.74213091
_cell_length_b   5.60393644
_cell_length_c   24.13529842
_cell_angle_alpha   90.00003260
_cell_angle_beta   90.00037183
_cell_angle_gamma   90.00018293
_symmetry_Int_Tables_number   1
_chemical_formula_structural   LiH5C5N2O3
_chemical_formula_sum   'Li4 H20 C20 N8 O12'
_cell_volume   641.38590677
_cell_formula_units_Z   4
loop_
 _symmetry_equiv_pos_site_id
 _symmetry_equiv_pos_as_xyz
  1  'x, y, z'
loop_
 _atom_site_type_symbol
 _atom_site_label
 _atom_site_symmetry_multiplicity
 _atom_site_fract_x
 _atom_site_fract_y
 _atom_site_fract_z
 _atom_site_occupancy
 _atom_site_hle17_bader_spin_density
 _atom_site_hle17_ddec_charge
 _atom_site_hle17_ddec_spin_density
 _atom_site_hle17_ddec_sum_bond_order
 _atom_site_hle17_magmom
 _atom_site_hse06_10hf_bader_spin_density
 _atom_site_hse06_10hf_ddec_charge
 _atom_site_hse06_10hf_ddec_spin_density
 _atom_site_hse06_10hf_ddec_sum_bond_order
 _atom_site_hse06_10hf_magmom
 _atom_site_hse06_bader_spin_density
 _atom_site_hse06_ddec_charge
 _atom_site_hse06_ddec_spin_density
 _atom_site_hse06_ddec_sum_bond_order
 _atom_site_hse06_magmom
 _atom_site_pbe_bader_spin_density
 _atom_site_pbe_cm5_charge
 _atom_site_pbe_ddec_charge
 _atom_site_pbe_ddec_spin_density
 _atom_site_pbe_ddec_sum_bond_order
 _atom_site_pbe_magmom
Li  Li0  1  0.93043441  0.04254312  0.27470530  1  0  0.854566  0  0.374138  0  0  0.803205  0  0.491108  0  0  0.813622  0  0.473937  0  0  0.487961  0.79582  0  0.503232  0
Li  Li1  1  0.06957445  0.54253906  0.72529421  1  0  0.854565  0  0.37415  0  0  0.803202  0  0.491121  0  0  0.81362  0  0.473948  0  0  0.487982  0.795818  0  0.50325  0
Li  Li2  1  0.06957648  0.04253879  0.77470478  1  0  0.854578  0  0.374142  0  0  0.803215  0  0.491109  0  0  0.813632  0  0.473937  0  0  0.487985  0.79583  0  0.503239  0
Li  Li3  1  0.93043238  0.54254517  0.22529597  1  0  0.85458  0  0.374123  0  0  0.803199  0  0.491126  0  0  0.813616  0  0.473954  0  0  0.487971  0.795809  0  0.503257  0
H  H4  1  0.50131423  0.01689644  0.48146443  1  0  0.079705  0  0.981348  0  0  0.078514  0  1.057533  0  0  0.082603  0  1.054552  0  0  0.109677  0.075474  0  1.059775  0
H  H5  1  0.49866923  0.51688787  0.51853342  1  0  0.079622  0  0.981455  0  0  0.078445  0  1.057618  0  0  0.082532  0  1.054634  0  0  0.109644  0.075405  0  1.059857  0
H  H6  1  0.49868862  0.01690583  0.98146488  1  0  0.079749  0  0.981296  0  0  0.078536  0  1.057493  0  0  0.082629  0  1.054508  0  0  0.109673  0.075482  0  1.059745  0
H  H7  1  0.50129485  0.51692130  0.01853877  1  0  0.079714  0  0.981282  0  0  0.078498  0  1.057482  0  0  0.082586  0  1.054496  0  0  0.109631  0.075457  0  1.059729  0
H  H8  1  0.57733375  0.21543190  0.38962515  1  0  0.102229  0  0.969047  0  0  0.106805  0  1.034501  0  0  0.110845  0  1.031769  0  0  0.123394  0.103892  0  1.036558  0
H  H9  1  0.42266729  0.71542685  0.61037314  1  0  0.10227  0  0.96904  0  0  0.106848  0  1.034496  0  0  0.110888  0  1.031766  0  0  0.123428  0.103941  0  1.036554  0
H  H10  1  0.42267522  0.21543394  0.88962384  1  0  0.102175  0  0.969043  0  0  0.106747  0  1.034512  0  0  0.110788  0  1.03178  0  0  0.123374  0.103832  0  1.036574  0
H  H11  1  0.57732582  0.71545159  0.11037859  1  0  0.102347  0  0.968758  0  0  0.10688  0  1.034289  0  0  0.110922  0  1.031549  0  0  0.123408  0.103964  0  1.036358  0
H  H12  1  0.09228309  0.49687806  0.43984219  1  0  0.089458  0  0.945707  0  0  0.089817  0  1.020245  0  0  0.093547  0  1.017458  0  0  0.116055  0.087104  0  1.022292  0
H  H13  1  0.90771895  0.99685825  0.56016071  1  0  0.089482  0  0.945765  0  0  0.089808  0  1.020317  0  0  0.093539  0  1.017529  0  0  0.116061  0.087091  0  1.022374  0
H  H14  1  0.90771587  0.49687970  0.93984067  1  0  0.089412  0  0.945726  0  0  0.089781  0  1.020271  0  0  0.093509  0  1.017488  0  0  0.116048  0.087068  0  1.022329  0
H  H15  1  0.09227140  0.99690300  0.06015602  1  0  0.089495  0  0.94576  0  0  0.089861  0  1.020321  0  0  0.093587  0  1.017545  0  0  0.116072  0.087148  0  1.022384  0
H  H16  1  0.51623970  0.78393920  0.25195004  1  0  0.42974  0  0.87511  0  0  0.400624  0  0.936758  0  0  0.411541  0  0.920549  0  0  0.306475  0.392904  0  0.948235  0
H  H17  1  0.48376158  0.28393217  0.74804992  1  0  0.42974  0  0.875092  0  0  0.400632  0  0.936727  0  0  0.41155  0  0.920518  0  0  0.30648  0.392915  0  0.948198  0
H  H18  1  0.48376253  0.78393428  0.75195047  1  0  0.429723  0  0.87513  0  0  0.400609  0  0.936775  0  0  0.411527  0  0.920566  0  0  0.306468  0.392893  0  0.948245  0
H  H19  1  0.51624297  0.28393531  0.24805032  1  0  0.429762  0  0.87508  0  0  0.400647  0  0.936726  0  0  0.411564  0  0.920518  0  0  0.306481  0.392929  0  0.948197  0
H  H20  1  0.59248954  0.90832147  0.19628143  1  0  0.428808  0  0.878397  0  0  0.399549  0  0.93892  0  0  0.410832  0  0.922559  0  0  0.299648  0.391619  0  0.950404  0
H  H21  1  0.40751008  0.40831611  0.80371772  1  0  0.42884  0  0.878355  0  0  0.39959  0  0.938873  0  0  0.410875  0  0.922509  0  0  0.299657  0.39166  0  0.950356  0
H  H22  1  0.40750708  0.90831454  0.69628218  1  0  0.428807  0  0.878407  0  0  0.399557  0  0.938927  0  0  0.410842  0  0.922562  0  0  0.299644  0.391622  0  0.950417  0
H  H23  1  0.59249674  0.40831769  0.30371905  1  0  0.428827  0  0.878378  0  0  0.399582  0  0.938881  0  0  0.410865  0  0.922522  0  0  0.299658  0.391643  0  0.950375  0
C  C24  1  0.01826519  0.76923644  0.37777373  1  0  0.047842  0  3.754835  0  0  0.056162  0  4.002114  0  0  0.052658  0  4.021225  0  0  0.122309  0.058209  0  3.989219  0
C  C25  1  0.98173393  0.26922703  0.62222664  1  0  0.047757  0  3.754701  0  0  0.056152  0  4.001904  0  0  0.052647  0  4.021016  0  0  0.122241  0.058207  0  3.988996  0
C  C26  1  0.98173902  0.76923830  0.87777190  1  0  0.047791  0  3.754747  0  0  0.056161  0  4.002003  0  0  0.052656  0  4.021115  0  0  0.122347  0.058213  0  3.989103  0
C  C27  1  0.01826432  0.26926265  0.12222724  1  0  0.047883  0  3.754549  0  0  0.056078  0  4.002142  0  0  0.052566  0  4.021254  0  0  0.122346  0.05813  0  3.989248  0
C  C28  1  0.22415278  0.67151075  0.33594259  1  0  0.640853  0  3.916812  0  0  0.58794  0  4.216712  0  0  0.620817  0  4.209215  0  0  0.234674  0.565812  0  4.220968  0
C  C29  1  0.77585231  0.17150440  0.66405818  1  0  0.640756  0  3.916794  0  0  0.587727  0  4.216852  0  0  0.620604  0  4.20936  0  0  0.234531  0.565611  0  4.221092  0
C  C30  1  0.77584759  0.67150488  0.83594132  1  0  0.640742  0  3.916828  0  0  0.58777  0  4.216806  0  0  0.620647  0  4.209311  0  0  0.234594  0.565653  0  4.221047  0
C  C31  1  0.22415961  0.17151206  0.16405614  1  0  0.640726  0  3.916898  0  0  0.587806  0  4.216898  0  0  0.620684  0  4.209399  0  0  0.234577  0.565679  0  4.221152  0
C  C32  1  0.65332089  0.94334004  0.45187724  1  0  0.076962  0  3.679878  0  0  0.05341  0  3.93947  0  0  0.055212  0  3.956641  0  0  0.052897  0.052339  0  3.92786  0
C  C33  1  0.34667674  0.44333224  0.54812110  1  0  0.077274  0  3.679761  0  0  0.05372  0  3.939364  0  0  0.05553  0  3.956531  0  0  0.053015  0.05266  0  3.92775  0
C  C34  1  0.34668427  0.94334007  0.95187707  1  0  0.076809  0  3.679983  0  0  0.053298  0  3.939526  0  0  0.0551  0  3.956696  0  0  0.052883  0.052245  0  3.927925  0
C  C35  1  0.65330703  0.44336076  0.04812416  1  0  0.076848  0  3.679888  0  0  0.053341  0  3.939379  0  0  0.055148  0  3.956549  0  0  0.052945  0.052273  0  3.927776  0
C  C36  1  0.69416930  0.05452198  0.40064766  1  0  0.083414  0  3.669159  0  0  0.060977  0  3.925239  0  0  0.061229  0  3.942171  0  0  0.058948  0.060627  0  3.913949  0
C  C37  1  0.30582905  0.55451300  0.59935185  1  0  0.083215  0  3.669264  0  0  0.06076  0  3.92538  0  0  0.06101  0  3.942312  0  0  0.058859  0.060375  0  3.914146  0
C  C38  1  0.30584156  0.05452189  0.90064620  1  0  0.083576  0  3.66907  0  0  0.061118  0  3.925145  0  0  0.061371  0  3.942078  0  0  0.058993  0.060781  0  3.913824  0
C  C39  1  0.69416523  0.55453985  0.09935580  1  0  0.083372  0  3.668982  0  0  0.060961  0  3.924997  0  0  0.061212  0  3.941929  0  0  0.05897  0.060621  0  3.913682  0
C  C40  1  0.97659029  0.65887794  0.42915758  1  0  0.077114  0  3.677142  0  0  0.044792  0  3.937072  0  0  0.047615  0  3.953838  0  0  0.061023  0.042962  0  3.925781  0
C  C41  1  0.02341054  0.15886390  0.57084319  1  0  0.077267  0  3.677175  0  0  0.044994  0  3.937039  0  0  0.047818  0  3.953803  0  0  0.061167  0.043161  0  3.925746  0
C  C42  1  0.02341100  0.65887883  0.92915701  1  0  0.077213  0  3.676948  0  0  0.044844  0  3.936909  0  0  0.047668  0  3.953673  0  0  0.060978  0.043001  0  3.92563  0
C  C43  1  0.97658984  0.15889335  0.07084086  1  0  0.077194  0  3.676546  0  0  0.044778  0  3.936721  0  0  0.047608  0  3.953475  0  0  0.060973  0.042937  0  3.925443  0
N  N44  1  0.87510373  0.96650257  0.36318861  1  0  -0.334658  0  3.130274  0  0  -0.301087  0  3.390626  0  0  -0.306363  0  3.40445  0  0  -0.333506  -0.297267  0  3.381392  0
N  N45  1  0.12490452  0.46649786  0.63681056  1  0  -0.334475  0  3.13033  0  0  -0.300913  0  3.39065  0  0  -0.306191  0  3.404478  0  0  -0.333412  -0.297085  0  3.381414  0
N  N46  1  0.12490280  0.96650196  0.86318775  1  0  -0.334663  0  3.130332  0  0  -0.301101  0  3.390676  0  0  -0.30638  0  3.404502  0  0  -0.333512  -0.297288  0  3.381448  0
N  N47  1  0.87510545  0.46651453  0.13681225  1  0  -0.334648  0  3.130561  0  0  -0.301021  0  3.390948  0  0  -0.306295  0  3.404776  0  0  -0.333518  -0.297201  0  3.381711  0
N  N48  1  0.79320936  0.74465849  0.46633663  1  0  -0.265093  0  3.067567  0  0  -0.227113  0  3.334111  0  0  -0.235466  0  3.348985  0  0  -0.299196  -0.221234  0  3.323858  0
N  N49  1  0.20678334  0.24463955  0.53366333  1  0  -0.26548  0  3.067682  0  0  -0.227526  0  3.334258  0  0  -0.235884  0  3.349132  0  0  -0.299409  -0.221643  0  3.324001  0
N  N50  1  0.20679135  0.74466526  0.96633629  1  0  -0.265136  0  3.067635  0  0  -0.227146  0  3.334172  0  0  -0.235501  0  3.349049  0  0  -0.299207  -0.221274  0  3.323929  0
N  N51  1  0.79319503  0.24468988  0.03366408  1  0  -0.265197  0  3.067341  0  0  -0.227161  0  3.333912  0  0  -0.235518  0  3.348781  0  0  -0.299252  -0.221278  0  3.323663  0
O  O52  1  0.20108231  0.74961648  0.28619968  1  0  -0.729553  0  1.995163  0  0  -0.669767  0  2.224292  0  0  -0.692807  0  2.211285  0  0  -0.354894  -0.653756  0  2.23285  0
O  O53  1  0.79892518  0.24961207  0.71380153  1  0  -0.729463  0  1.99513  0  0  -0.669642  0  2.224308  0  0  -0.692683  0  2.211303  0  0  -0.354837  -0.653632  0  2.232849  0
O  O54  1  0.79892093  0.74961424  0.78619719  1  0  -0.729426  0  1.995011  0  0  -0.669636  0  2.224168  0  0  -0.692675  0  2.21116  0  0  -0.354856  -0.653636  0  2.232726  0
O  O55  1  0.20107601  0.24961967  0.21380194  1  0  -0.72953  0  1.994917  0  0  -0.669738  0  2.224066  0  0  -0.692779  0  2.211054  0  0  -0.354902  -0.653729  0  2.232625  0
O  O56  1  0.40331277  0.52280306  0.35314489  1  0  -0.600363  0  1.987715  0  0  -0.547808  0  2.208496  0  0  -0.573654  0  2.202321  0  0  -0.290644  -0.529858  0  2.212213  0
O  O57  1  0.59668970  0.02279080  0.64685545  1  0  -0.600344  0  1.987713  0  0  -0.54776  0  2.208568  0  0  -0.573605  0  2.202388  0  0  -0.29055  -0.529815  0  2.212277  0
O  O58  1  0.59669187  0.52280202  0.85314297  1  0  -0.60034  0  1.987924  0  0  -0.547731  0  2.208701  0  0  -0.573576  0  2.202525  0  0  -0.290579  -0.529791  0  2.212417  0
O  O59  1  0.40330005  0.02281861  0.14685571  1  0  -0.60034  0  1.988256  0  0  -0.547667  0  2.208952  0  0  -0.573507  0  2.202773  0  0  -0.290535  -0.529722  0  2.212673  0
O  O60  1  0.68394250  0.82931110  0.22922866  1  0  -0.980985  0  1.84163  0  0  -0.935992  0  2.029099  0  0  -0.952206  0  1.9939  0  0  -0.69481  -0.924616  0  2.053685  0
O  O61  1  0.31605684  0.32930898  0.77077007  1  0  -0.981028  0  1.841594  0  0  -0.936041  0  2.029029  0  0  -0.952254  0  1.993829  0  0  -0.694844  -0.924668  0  2.053616  0
O  O62  1  0.31605704  0.82930926  0.72922887  1  0  -0.981028  0  1.841676  0  0  -0.936035  0  2.029108  0  0  -0.952249  0  1.993907  0  0  -0.694834  -0.924655  0  2.053696  0
O  O63  1  0.68394440  0.32931082  0.27077192  1  0  -0.981053  0  1.841638  0  0  -0.936058  0  2.029084  0  0  -0.952271  0  1.993882  0  0  -0.694845  -0.924673  0  2.053688  0
