# generated using pymatgen
data_Zn2H11C30Br5(NO7)2
_symmetry_space_group_name_H-M   'P 1'
_cell_length_a   9.98756430
_cell_length_b   11.06966981
_cell_length_c   13.29408554
_cell_angle_alpha   90.49300652
_cell_angle_beta   69.31799595
_cell_angle_gamma   79.47096828
_symmetry_Int_Tables_number   1
_chemical_formula_structural   Zn2H11C30Br5(NO7)2
_chemical_formula_sum   'Zn2 H11 C30 Br5 N2 O14'
_cell_volume   1347.62748911
_cell_formula_units_Z   1
loop_
 _symmetry_equiv_pos_site_id
 _symmetry_equiv_pos_as_xyz
  1  'x, y, z'
loop_
 _atom_site_type_symbol
 _atom_site_label
 _atom_site_symmetry_multiplicity
 _atom_site_fract_x
 _atom_site_fract_y
 _atom_site_fract_z
 _atom_site_occupancy
 _atom_site_pbe_bader_charge
 _atom_site_pbe_bader_spin_density
 _atom_site_pbe_cm5_charge
 _atom_site_pbe_ddec_charge
 _atom_site_pbe_ddec_spin_density
 _atom_site_pbe_ddec_sum_bond_order
 _atom_site_pbe_magmom
Zn  Zn0  1  0.64829248  0.50305244  0.48454125  1  1.307942  0  0.679338  0.895849  0  2.35722  0
Zn  Zn1  1  0.33854202  0.54408780  0.52270601  1  1.307904  0  0.686923  0.884807  0  2.341723  0
H  H2  1  0.73453172  0.36115691  0.87571926  1  0.060293  0  0.092869  0.089629  0  1.065853  0
H  H3  1  0.47696938  0.93649087  0.41541165  1  0.129181  0  0.130306  0.170967  0  0.943913  0
H  H4  1  0.86644822  0.60708545  0.48268955  1  0.472526  0  0.329269  0.328939  0  0.874184  0
H  H5  1  0.03384817  0.47738292  0.66403954  1  0.168688  0  0.135689  0.115235  0  0.984545  0
H  H6  1  0.12367763  0.55627009  0.44363186  1  0.437043  0  0.315767  0.289231  0  0.912924  0
H  H7  1  0.17181131  0.43593280  0.76798722  1  0.083735  0  0.097602  0.035868  0  1.00945  0
H  H8  1  0.72643318  0.09212878  0.41823342  1  0.093373  0  0.110452  0.053772  0  0.941404  0
H  H9  1  0.94388513  0.51705370  0.05201852  1  0.104972  0  0.103013  0.050581  0  1.002377  0
H  H10  1  0.83501897  0.27717083  0.25997798  1  0.105607  0  0.09822  0.050631  0  1.014134  0
H  H11  1  0.95781542  0.21912973  0.85544149  1  0.048153  0  0.087308  0.022796  0  0.997743  0
H  H12  1  0.23209450  0.36568522  0.36948871  1  0.062857  0  0.085453  0.007539  0  1.045116  0
C  C13  1  0.48298152  0.75363834  0.48336959  1  1.601637  0  0.222291  0.671969  0  4.158016  0
C  C14  1  0.58464830  0.44120940  0.29994537  1  1.578291  0  0.22137  0.593348  0  4.144117  0
C  C15  1  0.49612275  0.29191073  0.53348013  1  1.584851  0  0.213272  0.621516  0  4.152589  0
C  C16  1  0.41303997  0.54750171  0.71212904  1  1.628164  0  0.211986  0.595797  0  4.186067  0
C  C17  1  0.18416381  0.51407856  0.00251885  1  0.032757  0  0.005936  -0.007181  0  3.871696  0
C  C18  1  0.37653341  0.52678671  0.82937966  1  -0.017608  0  -0.013974  -0.106204  0  3.936288  0
C  C19  1  0.76364602  0.32740797  0.12264688  1  -0.101765  0  0.006198  0.008483  0  3.891025  0
C  C20  1  0.80107829  0.31452513  0.00891902  1  0.038634  0  -0.009607  -0.001315  0  3.956848  0
C  C21  1  0.70059979  0.36574441  0.96330027  1  0.042036  0  -0.071815  -0.129518  0  3.934342  0
C  C22  1  0.55422881  0.41778280  0.02796057  1  -0.023529  0  0.00522  0.051591  0  3.957013  0
C  C23  1  0.51230293  0.40699914  0.14031756  1  -0.007958  0  0.018624  0.072008  0  3.915123  0
C  C24  1  0.44307481  0.46897229  0.98517522  1  0.034917  0  0.006464  0.008738  0  3.908112  0
C  C25  1  0.29154100  0.47677008  0.04958540  1  0.031402  0  0.007509  0.026168  0  3.92836  0
C  C26  1  0.25910801  0.43402572  0.15626195  1  -0.115053  0  -0.000417  0.033763  0  3.892937  0
C  C27  1  0.36328144  0.40234763  0.20158072  1  0.094823  0  -0.020478  -0.068652  0  3.974749  0
C  C28  1  0.47683783  0.51506461  0.88133981  1  -0.095204  0  0.004296  0.068105  0  3.861017  0
C  C29  1  0.22998073  0.52017925  0.89087493  1  0.043449  0  0.007076  0.016154  0  3.881781  0
C  C30  1  0.62205476  0.38578970  0.18731298  1  0.055031  0  0.009833  -0.072885  0  3.840465  0
C  C31  1  0.40057281  0.09455184  0.58812757  1  -0.035081  0  0.005619  0.094448  0  3.933377  0
C  C32  1  0.50832569  0.15776085  0.54665869  1  0.02727  0  -0.027504  -0.171243  0  3.887475  0
C  C33  1  0.42731923  0.95963926  0.58261194  1  -0.095189  0  -0.024282  0.067708  0  4.03753  0
C  C34  1  0.46596237  0.89084467  0.48970665  1  0.067258  0  -0.084662  -0.252708  0  3.83789  0
C  C35  1  0.91085911  0.46219154  0.55624526  1  0.726451  0  0.161585  0.266274  0  4.01668  0
C  C36  1  0.03132783  0.49735929  0.58412627  1  0.733877  0  0.116595  0.148664  0  3.857963  0
C  C37  1  0.12637421  0.51129103  0.83397945  1  0.985382  0  0.098315  0.301883  0  3.97187  0
C  C38  1  0.66627033  0.09088213  0.50634254  1  0.995828  0  0.104904  0.320824  0  3.956967  0
C  C39  1  0.02537738  0.56119494  0.06897527  1  0.958162  0  0.089938  0.267065  0  3.992455  0
C  C40  1  0.85483248  0.24862974  0.17506899  1  0.949095  0  0.08917  0.246764  0  3.985922  0
C  C41  1  0.95205726  0.26591415  0.93221880  1  0.973431  0  0.105042  0.291493  0  3.95487  0
C  C42  1  0.33400816  0.32966944  0.29996003  1  0.995427  0  0.088078  0.300566  0  4.014773  0
Br  Br43  1  0.39561773  0.88955466  0.71733051  1  -0.020601  0  0.042546  -0.018694  0  1.409527  0
Br  Br44  1  0.87573394  0.30647647  0.60097478  1  0.09968  0  0.158962  0.085332  0  1.534251  0
Br  Br45  1  0.07109890  0.39757958  0.23238909  1  -0.007418  0  0.101108  0.012576  0  1.658226  0
Br  Br46  1  0.64730174  0.58511906  0.82598733  1  -0.003065  0  0.070795  -0.002837  0  1.554164  0
Br  Br47  1  0.19849264  0.16789457  0.65107479  1  -0.018878  0  0.045169  -0.05134  0  1.628002  0
N  N48  1  0.84177088  0.52201218  0.50218224  1  -1.223578  0  -0.450898  -0.471995  0  3.29184  0
N  N49  1  0.13387988  0.54239670  0.51724411  1  -1.195038  0  -0.432094  -0.372668  0  3.218149  0
O  O50  1  0.60423083  0.69020466  0.47940016  1  -1.160961  0  -0.309901  -0.541073  0  2.283927  0
O  O51  1  0.37186248  0.71340721  0.48282589  1  -1.149745  0  -0.314207  -0.535485  0  2.269  0
O  O52  1  0.69031639  0.46484481  0.32391228  1  -1.144352  0  -0.30452  -0.525918  0  2.324279  0
O  O53  1  0.45019046  0.47127251  0.36027903  1  -1.156628  0  -0.291935  -0.537434  0  2.380438  0
O  O54  1  0.62078137  0.32313575  0.49446530  1  -1.15817  0  -0.311256  -0.558991  0  2.359802  0
O  O55  1  0.37251002  0.36346775  0.55944707  1  -1.164606  0  -0.312941  -0.548542  0  2.39777  0
O  O56  1  0.54532979  0.51823701  0.65042256  1  -1.181488  0  -0.316053  -0.567293  0  2.452639  0
O  O57  1  0.30505282  0.58720056  0.68265588  1  -1.136361  0  -0.298158  -0.527529  0  2.328483  0
O  O58  1  0.99975079  0.56750447  0.86184414  1  -1.102555  0  -0.270372  -0.371087  0  2.139292  0
O  O59  1  0.72616549  0.04221243  0.56545878  1  -1.082181  0  -0.270237  -0.359534  0  2.104132  0
O  O60  1  0.99095918  0.64998048  0.13459860  1  -1.053542  0  -0.268631  -0.34646  0  2.099868  0
O  O61  1  0.93360144  0.15077535  0.13039395  1  -1.055299  0  -0.248003  -0.317502  0  2.115564  0
O  O62  1  0.06307710  0.28269374  0.94450614  1  -1.069343  0  -0.251923  -0.354171  0  2.188201  0
O  O63  1  0.41020996  0.22987719  0.29999029  1  -1.084931  0  -0.266242  -0.348824  0  2.10292  0
