# generated using pymatgen
data_BaVH10C4O11
_symmetry_space_group_name_H-M   'P 1'
_cell_length_a   7.75020858
_cell_length_b   8.44743735
_cell_length_c   8.98772551
_cell_angle_alpha   78.46292907
_cell_angle_beta   68.49926083
_cell_angle_gamma   83.14766714
_symmetry_Int_Tables_number   1
_chemical_formula_structural   BaVH10C4O11
_chemical_formula_sum   'Ba2 V2 H20 C8 O22'
_cell_volume   535.72945067
_cell_formula_units_Z   2
loop_
 _symmetry_equiv_pos_site_id
 _symmetry_equiv_pos_as_xyz
  1  'x, y, z'
loop_
 _atom_site_type_symbol
 _atom_site_label
 _atom_site_symmetry_multiplicity
 _atom_site_fract_x
 _atom_site_fract_y
 _atom_site_fract_z
 _atom_site_occupancy
 _atom_site_hle17_ddec_charge
 _atom_site_hle17_ddec_spin_density
 _atom_site_hle17_ddec_sum_bond_order
 _atom_site_hle17_magmom
 _atom_site_hse06_10hf_ddec_charge
 _atom_site_hse06_10hf_ddec_spin_density
 _atom_site_hse06_10hf_ddec_sum_bond_order
 _atom_site_hse06_10hf_magmom
 _atom_site_hse06_ddec_charge
 _atom_site_hse06_ddec_spin_density
 _atom_site_hse06_ddec_sum_bond_order
 _atom_site_hse06_magmom
 _atom_site_pbe_cm5_charge
 _atom_site_pbe_ddec_charge
 _atom_site_pbe_ddec_spin_density
 _atom_site_pbe_ddec_sum_bond_order
 _atom_site_pbe_magmom
Ba  Ba0  1  0.40417597  0.85379992  0.27782605  1  1.685201  -0.003054  1.126235  -0.001  1.553293  -0.002276  1.528057  0.0  1.591941  -0.002526  1.48263  0.0  0.950693  1.524766  -0.002008  1.560317  0.0
Ba  Ba1  1  0.59582450  0.14620028  0.72217334  1  1.685191  -0.003056  1.126244  -0.001  1.55328  -0.002274  1.528062  0.0  1.591927  -0.002527  1.482641  0.0  0.950676  1.524756  -0.002008  1.560323  0.0
V  V2  1  0.96470383  0.30820180  0.88238456  1  1.738796  1.198899  2.593067  1.174  1.744503  1.033591  3.00918  1.006  1.840482  1.062423  2.962919  1.038  1.337583  1.669996  1.009967  3.058125  0.98
V  V3  1  0.03529664  0.69179840  0.11761594  1  1.738751  1.198891  2.593037  1.174  1.74449  1.033588  3.009109  1.006  1.84034  1.06242  2.963036  1.038  1.337566  1.669929  1.009964  3.058119  0.98
H  H4  1  0.78186582  0.69830401  0.71066658  1  0.079115  -0.001121  0.926688  -0.001  0.087461  -0.000506  0.991078  0.0  0.089471  -0.000484  0.988982  0.0  0.122222  0.085741  -0.000486  0.993153  0.0
H  H5  1  0.21813333  0.30169499  0.28933456  1  0.079128  -0.00112  0.926687  -0.001  0.087468  -0.000506  0.991069  0.0  0.089477  -0.000485  0.988973  0.0  0.12222  0.085746  -0.000486  0.993145  0.0
H  H6  1  0.98637066  0.87452517  0.72931569  1  0.076845  -0.001325  0.934773  -0.001  0.087347  -0.000743  0.99508  0.0  0.089382  -0.000709  0.993145  0.0  0.124648  0.085942  -0.000741  0.996778  0.0
H  H7  1  0.01362987  0.12547382  0.27068390  1  0.07682  -0.001325  0.934816  -0.001  0.087344  -0.000743  0.995096  0.0  0.08938  -0.00071  0.993162  0.0  0.124644  0.085938  -0.000741  0.996794  0.0
H  H8  1  0.24260181  0.02423414  0.58818617  1  0.417484  3.8e-05  0.886527  0.0  0.389256  6.5e-05  0.946448  0.0  0.400047  4.2e-05  0.930614  0.0  0.298433  0.381423  9.5e-05  0.958005  0.0
H  H9  1  0.75739866  0.97576606  0.41181544  1  0.417475  3.7e-05  0.886534  0.0  0.389238  6.5e-05  0.94647  0.0  0.400028  4.2e-05  0.930637  0.0  0.298416  0.381405  9.5e-05  0.958028  0.0
H  H10  1  0.08628220  0.13413365  0.53274384  1  0.427503  -0.000135  0.853176  0.0  0.398104  -0.000108  0.923174  0.0  0.408082  -0.000108  0.908281  0.0  0.312036  0.390886  -8.4e-05  0.933999  0.0
H  H11  1  0.91371695  0.86586534  0.46725730  1  0.427495  -0.000134  0.8532  0.0  0.398096  -0.000108  0.923187  0.0  0.408074  -0.000108  0.908294  0.0  0.31204  0.390877  -8.4e-05  0.934014  0.0
H  H12  1  0.50761008  0.59085794  0.62711683  1  0.433792  5e-06  0.859615  0.0  0.405549  4e-05  0.918272  0.0  0.416008  2.2e-05  0.902828  0.0  0.30247  0.398071  5.1e-05  0.929329  0.0
H  H13  1  0.49239039  0.40914226  0.37288145  1  0.433773  4e-06  0.859646  0.0  0.405526  4e-05  0.918311  0.0  0.415985  2.2e-05  0.902866  0.0  0.30246  0.398047  5.1e-05  0.929369  0.0
H  H14  1  0.66922019  0.63636700  0.46156342  1  0.426011  -0.000282  0.873844  0.0  0.396027  -0.000122  0.935855  0.0  0.407484  -0.000188  0.918978  0.0  0.300893  0.387787  -5.8e-05  0.948042  0.0
H  H15  1  0.33078028  0.36363320  0.53843486  1  0.425945  -0.000282  0.873927  0.0  0.395987  -0.000122  0.935907  0.0  0.407444  -0.000187  0.919027  0.0  0.300887  0.387744  -5.8e-05  0.948096  0.0
H  H16  1  0.72453304  0.15596668  0.21562894  1  0.427412  -0.000417  0.871653  0.0  0.398201  -0.000319  0.932781  0.0  0.409713  -0.000319  0.915996  0.0  0.301415  0.39013  -0.000301  0.944466  0.0
H  H17  1  0.27546749  0.84403231  0.78436955  1  0.427423  -0.000416  0.871636  0.0  0.398213  -0.000319  0.932763  0.0  0.409724  -0.000319  0.915979  0.0  0.301401  0.390142  -0.000301  0.944448  0.0
H  H18  1  0.54009487  0.16523342  0.36486700  1  0.416518  8e-06  0.888863  0.0  0.388273  1.4e-05  0.949767  0.0  0.398577  1e-05  0.934653  0.0  0.300583  0.380906  1.9e-05  0.960581  0.0
H  H19  1  0.45990705  0.83476557  0.63513216  1  0.416547  7e-06  0.888813  0.0  0.388313  1.4e-05  0.949715  0.0  0.398617  1e-05  0.934603  0.0  0.300592  0.380946  1.9e-05  0.96053  0.0
H  H20  1  0.39441203  0.51949712  0.15136191  1  0.409901  -0.000491  0.900168  0.0  0.37946  -0.000445  0.964826  0.0  0.390374  -0.000415  0.948859  0.0  0.296951  0.371886  -0.000459  0.975863  0.0
H  H21  1  0.60558844  0.48050308  0.84863637  1  0.409915  -0.000491  0.900155  0.0  0.379471  -0.000445  0.964819  0.0  0.390385  -0.000416  0.948851  0.0  0.296953  0.371897  -0.000459  0.975855  0.0
H  H22  1  0.61428827  0.52516966  0.09010098  1  0.430738  -2.6e-05  0.85814  0.0  0.400504  0.000259  0.924722  0.0  0.411411  9e-05  0.908599  0.0  0.30271  0.392743  0.000412  0.936203  0.0
H  H23  1  0.38571081  0.47483054  0.90989773  1  0.430755  -2.7e-05  0.858129  0.0  0.400519  0.00026  0.924704  0.0  0.411425  9e-05  0.908583  0.0  0.302713  0.392757  0.000412  0.936185  0.0
C  C24  1  0.05354143  0.58145756  0.63146863  1  0.685784  0.002859  3.798896  0.004  0.636102  0.003019  4.101871  0.004  0.671804  0.00251  4.090578  0.004  0.229969  0.611534  0.003518  4.108588  0.004
C  C25  1  0.94645904  0.41854263  0.36853187  1  0.685712  0.002864  3.798943  0.004  0.635991  0.00302  4.101972  0.004  0.671696  0.002511  4.090668  0.004  0.229923  0.611424  0.003519  4.108683  0.004
C  C26  1  0.88497924  0.63828748  0.76436402  1  0.050992  0.003342  3.701151  0.005  0.026363  0.004506  3.952809  0.005  0.028803  0.003573  3.961687  0.005  -0.014391  0.024571  0.005426  3.946427  0.006
C  C27  1  0.11501984  0.36171273  0.23563581  1  0.050956  0.003339  3.701208  0.005  0.02637  0.004505  3.952808  0.005  0.028812  0.003576  3.961672  0.005  -0.014401  0.024576  0.005426  3.94642  0.006
C  C28  1  0.94690614  0.77066419  0.82949294  1  0.051607  0.004611  3.724465  0.006  0.033765  0.005451  3.969783  0.006  0.036522  0.004398  3.978462  0.006  -0.010895  0.031715  0.006491  3.963238  0.007
C  C29  1  0.05309433  0.22933601  0.17050645  1  0.051566  0.004612  3.724549  0.006  0.033721  0.005452  3.969836  0.006  0.036474  0.004397  3.978531  0.006  -0.010884  0.031673  0.006491  3.963293  0.007
C  C30  1  0.77714403  0.81914808  0.96508161  1  0.667107  0.002754  3.843219  0.004  0.619813  0.002943  4.139138  0.004  0.656026  0.002359  4.127171  0.004  0.219996  0.595067  0.003518  4.145981  0.005
C  C31  1  0.22285499  0.18085333  0.03491913  1  0.667217  0.002758  3.843051  0.004  0.619907  0.002943  4.138985  0.004  0.656122  0.002359  4.127025  0.004  0.220023  0.59516  0.003518  4.145831  0.005
O  O32  1  0.12339427  0.67110688  0.49911390  1  -0.64481  -0.001409  1.987696  -0.001  -0.591412  5e-05  2.232091  0.0  -0.616311  -0.000144  2.221459  0.0  -0.341433  -0.573571  0.00045  2.238636  0.001
O  O33  1  0.87660752  0.32889452  0.50088596  1  -0.644762  -0.001412  1.987709  -0.001  -0.591367  5.1e-05  2.232138  0.0  -0.616266  -0.000142  2.221506  0.0  -0.341405  -0.573526  0.000451  2.238683  0.001
O  O34  1  0.62951533  0.87297330  0.94361229  1  -0.659748  -0.001581  2.015527  -0.001  -0.603234  0.000179  2.254716  0.0  -0.628278  -0.000113  2.244013  0.0  -0.359105  -0.585503  0.000556  2.261886  0.001
O  O35  1  0.37048640  0.12702931  0.05638848  1  -0.659774  -0.001582  2.015405  -0.001  -0.603277  0.000179  2.254635  0.0  -0.62832  -0.000112  2.24393  0.0  -0.359111  -0.585545  0.000556  2.261804  0.001
O  O36  1  0.11801233  0.43541894  0.67037687  1  -0.665204  -0.005285  2.066624  -0.016  -0.622056  0.006197  2.324775  -0.006  -0.6555  0.004971  2.314492  -0.007  -0.345862  -0.597143  0.00723  2.33211  -0.006
O  O37  1  0.88198802  0.56458368  0.32962211  1  -0.665151  -0.005287  2.066572  -0.016  -0.621978  0.006197  2.324712  -0.006  -0.655398  0.004969  2.314436  -0.007  -0.34583  -0.597056  0.007229  2.332046  -0.006
O  O38  1  0.79194033  0.78933122  0.10804893  1  -0.694613  -0.004873  2.062784  -0.016  -0.65409  0.006804  2.330173  -0.006  -0.688534  0.005629  2.321578  -0.006  -0.389344  -0.628413  0.007837  2.33622  -0.005
O  O39  1  0.20806014  0.21066897  0.89195157  1  -0.694619  -0.004876  2.062702  -0.016  -0.654076  0.006804  2.330089  -0.006  -0.688544  0.005629  2.321487  -0.006  -0.389332  -0.628412  0.007836  2.336135  -0.005
O  O40  1  0.80751056  0.50690917  0.88864121  1  -0.721708  -0.004227  2.062007  -0.017  -0.685482  0.012589  2.333674  -0.003  -0.717347  0.010279  2.329292  -0.004  -0.427227  -0.661351  0.014692  2.336618  -0.002
O  O41  1  0.19248853  0.49309104  0.11135862  1  -0.721699  -0.004225  2.06203  -0.017  -0.685494  0.01259  2.333679  -0.003  -0.717332  0.010275  2.329305  -0.004  -0.42723  -0.66135  0.014692  2.336624  -0.002
O  O42  1  0.09373260  0.71569321  0.88691647  1  -0.6873  -0.006252  2.01134  -0.018  -0.664925  0.013355  2.288656  -0.002  -0.696157  0.010544  2.284298  -0.003  -0.43772  -0.640739  0.015921  2.291127  0.0
O  O43  1  0.90626787  0.28430699  0.11308292  1  -0.687295  -0.006252  2.011368  -0.018  -0.664918  0.013356  2.288694  -0.002  -0.696181  0.010547  2.284334  -0.003  -0.437745  -0.640745  0.015922  2.291163  0.0
O  O44  1  0.13531511  0.82945367  0.15809193  1  -0.849446  -0.181437  1.379249  -0.163  -0.852989  -0.085197  1.669289  -0.078  -0.89332  -0.102206  1.656666  -0.094  -0.660482  -0.823849  -0.07301  1.680823  -0.067
O  O45  1  0.86468397  0.17054653  0.84190790  1  -0.849481  -0.181446  1.379291  -0.163  -0.853008  -0.085198  1.669336  -0.078  -0.893381  -0.102211  1.656676  -0.094  -0.660486  -0.823887  -0.073012  1.680859  -0.067
O  O46  1  0.18966673  0.05466844  0.50030095  1  -0.88872  -5.6e-05  1.829951  0.0  -0.838698  9.1e-05  2.017228  0.0  -0.857715  5.6e-05  1.985561  0.0  -0.620997  -0.825322  0.000133  2.04047  0.0
O  O47  1  0.81033381  0.94533055  0.49969976  1  -0.888696  -5.7e-05  1.829972  0.0  -0.838668  9.1e-05  2.017251  0.0  -0.857684  5.5e-05  1.985587  0.0  -0.620987  -0.82529  0.000133  2.040496  0.0
O  O48  1  0.54127432  0.67245434  0.52588223  1  -0.888492  9.1e-05  1.834826  0.0  -0.831088  0.000406  2.008471  0.0  -0.851489  0.000305  1.975988  0.0  -0.602521  -0.816554  0.000492  2.031556  0.0
O  O49  1  0.45872621  0.32754465  0.47411625  1  -0.888406  9.1e-05  1.834896  0.0  -0.831018  0.000407  2.00849  0.0  -0.851418  0.000304  1.976005  0.0  -0.602497  -0.816487  0.000492  2.031583  0.0
O  O50  1  0.62471690  0.08685431  0.29842379  1  -0.868886  -0.000454  1.83057  0.0  -0.804833  -0.000205  1.991105  0.0  -0.826326  -0.000214  1.959874  0.0  -0.598369  -0.78951  -0.000171  2.013319  0.0
O  O51  1  0.37528509  0.91314346  0.70157669  1  -0.868927  -0.000454  1.830551  0.0  -0.804888  -0.000205  1.991022  0.0  -0.82638  -0.000215  1.959793  0.0  -0.598355  -0.789567  -0.000171  2.013235  0.0
O  O52  1  0.49933518  0.53708065  0.18434170  1  -0.855852  -0.000171  1.833044  0.0  -0.795211  0.000361  2.001852  0.0  -0.815061  0.000217  1.969384  0.0  -0.592252  -0.781162  0.000513  2.02472  0.0
O  O53  1  0.50066529  0.46291956  0.81565658  1  -0.85589  -0.000171  1.833037  0.0  -0.795249  0.00036  2.001841  0.0  -0.815099  0.000218  1.969374  0.0  -0.592256  -0.7812  0.000513  2.024709  0.0
