# generated using pymatgen
data_Zn4H10C26S4Br2O13
_symmetry_space_group_name_H-M   'P 1'
_cell_length_a   19.68859253
_cell_length_b   19.69188479
_cell_length_c   33.39931754
_cell_angle_alpha   79.11331785
_cell_angle_beta   79.11892387
_cell_angle_gamma   63.89787498
_symmetry_Int_Tables_number   1
_chemical_formula_structural   Zn4H10C26S4Br2O13
_chemical_formula_sum   'Zn16 H40 C104 S16 Br8 O52'
_cell_volume   11336.86965777
_cell_formula_units_Z   4
loop_
 _symmetry_equiv_pos_site_id
 _symmetry_equiv_pos_as_xyz
  1  'x, y, z'
loop_
 _atom_site_type_symbol
 _atom_site_label
 _atom_site_symmetry_multiplicity
 _atom_site_fract_x
 _atom_site_fract_y
 _atom_site_fract_z
 _atom_site_occupancy
 _atom_site_pbe_bader_charge
 _atom_site_pbe_bader_spin_density
 _atom_site_pbe_cm5_charge
 _atom_site_pbe_ddec_charge
 _atom_site_pbe_ddec_spin_density
 _atom_site_pbe_ddec_sum_bond_order
 _atom_site_pbe_magmom
Zn  Zn0  1  0.05592508  0.39958635  0.47788019  1  1.320608  0  0.673675  0.976356  0  2.332289  0
Zn  Zn1  1  0.98470853  0.48351109  0.55994883  1  1.315705  0  0.671084  0.951211  0  2.386182  0
Zn  Zn2  1  0.05878921  0.56046643  0.48159479  1  1.318983  0  0.672472  0.960984  0  2.394705  0
Zn  Zn3  1  0.90084969  0.55597188  0.47965512  1  1.318788  0  0.672574  0.961304  0  2.396985  0
Zn  Zn4  1  0.69414904  0.34996988  0.27185812  1  1.319459  0  0.673232  0.974221  0  2.339041  0
Zn  Zn5  1  0.68873686  0.18952984  0.26657105  1  1.312251  0  0.67265  0.970222  0  2.349344  0
Zn  Zn6  1  0.76880800  0.26742086  0.19044304  1  1.314958  0  0.672102  0.959796  0  2.394232  0
Zn  Zn7  1  0.84740015  0.19301089  0.27133451  1  1.319122  0  0.671579  0.955546  0  2.406372  0
Zn  Zn8  1  0.26677576  0.76637949  0.68897307  1  1.305341  0  0.672713  0.967646  0  2.351488  0
Zn  Zn9  1  0.34910845  0.69630762  0.77146192  1  1.314894  0  0.672228  0.962834  0  2.363353  0
Zn  Zn10  1  0.19211835  0.84906506  0.77087825  1  1.319653  0  0.673009  0.9725  0  2.373274  0
Zn  Zn11  1  0.19168603  0.68934669  0.76801293  1  1.316998  0  0.67193  0.960413  0  2.39241  0
Zn  Zn12  1  0.56011899  0.06120436  0.98347301  1  1.314348  0  0.672665  0.969508  0  2.347759  0
Zn  Zn13  1  0.40058333  0.05535772  0.97767587  1  1.313955  0  0.672286  0.965951  0  2.351851  0
Zn  Zn14  1  0.55712397  0.90169658  0.97909734  1  1.316609  0  0.671884  0.968364  0  2.382689  0
Zn  Zn15  1  0.48133239  0.98230760  0.05977361  1  1.318317  0  0.672044  0.966004  0  2.383937  0
H  H16  1  0.75015365  0.44795316  0.34893248  1  0.147693  0  0.112553  0.132877  0  0.99831  0
H  H17  1  0.99979682  0.30236159  0.40054214  1  0.159283  0  0.11241  0.132328  0  0.999325  0
H  H18  1  0.20050148  0.70001261  0.60142369  1  0.130427  0  0.111757  0.130526  0  1.000715  0
H  H19  1  0.04930131  0.55004461  0.64849195  1  0.125842  0  0.11015  0.128154  0  1.004867  0
H  H20  1  0.46367981  0.23910898  0.34107392  1  0.130637  0  0.12053  0.146333  0  0.969828  0
H  H21  1  0.47960977  0.70264911  0.60110150  1  0.095595  0  0.120995  0.147025  0  0.968245  0
H  H22  1  0.20324355  0.97915458  0.60083905  1  0.110806  0  0.120348  0.145715  0  0.969186  0
H  H23  1  0.94845185  0.97060158  0.34769364  1  0.144941  0  0.119763  0.145161  0  0.971196  0
H  H24  1  0.64822421  0.14883536  0.04962624  1  0.11933  0  0.111847  0.131761  0  1.0006  0
H  H25  1  0.60180932  0.10133341  0.20028083  1  0.123369  0  0.111839  0.131727  0  1.000126  0
H  H26  1  0.54651043  0.77144415  0.14846318  1  0.110564  0  0.120629  0.146661  0  0.969929  0
H  H27  1  0.16159651  0.14239550  0.03998625  1  0.12541  0  0.120484  0.146155  0  0.969249  0
H  H28  1  0.30236991  0.99945984  0.90091303  1  0.148798  0  0.111093  0.130991  0  1.000314  0
H  H29  1  0.44803928  0.75010694  0.84908749  1  0.145926  0  0.110976  0.130497  0  1.00136  0
H  H30  1  0.30034631  0.28037353  0.90205021  1  0.1155  0  0.120065  0.145257  0  0.970188  0
H  H31  1  0.78683132  0.01128734  0.90874345  1  0.126822  0  0.120875  0.146967  0  0.968263  0
H  H32  1  0.23189751  0.57558614  0.39888984  1  0.079497  0  0.101773  0.14811  0  0.976368  0
H  H33  1  0.33127864  0.55062587  0.39689479  1  0.048862  0  0.090548  0.128087  0  0.99835  0
H  H34  1  0.27622859  0.53582860  0.44395272  1  0.097326  0  0.098032  0.142845  0  0.988298  0
H  H35  1  0.82103963  0.47661351  0.65422400  1  0.070274  0  0.100805  0.144437  0  0.981642  0
H  H36  1  0.75710323  0.53652699  0.69160550  1  0.022439  0  0.091024  0.12781  0  0.999989  0
H  H37  1  0.82405029  0.56366199  0.65658085  1  0.08922  0  0.102428  0.148231  0  0.975622  0
H  H38  1  0.06424505  0.32314858  0.65669415  1  0.081946  0  0.102363  0.147863  0  0.975885  0
H  H39  1  0.03692700  0.25604317  0.69141395  1  0.051269  0  0.090936  0.127735  0  0.999622  0
H  H40  1  0.97709835  0.32047439  0.65412201  1  0.071855  0  0.099951  0.14335  0  0.982507  0
H  H41  1  0.79759652  0.72202914  0.38987083  1  0.078181  0  0.099192  0.145067  0  0.988006  0
H  H42  1  0.73138399  0.81997269  0.38596597  1  0.048859  0  0.0908  0.128882  0  0.997941  0
H  H43  1  0.75742550  0.76722632  0.43464247  1  0.071359  0  0.102251  0.149111  0  0.976742  0
H  H44  1  0.77288999  0.42937209  0.09625033  1  0.078463  0  0.101763  0.148031  0  0.976719  0
H  H45  1  0.71269541  0.49342535  0.05899888  1  0.022878  0  0.090383  0.127966  0  0.998864  0
H  H46  1  0.68579794  0.42632531  0.09400204  1  0.083322  0  0.098708  0.143855  0  0.987552  0
H  H47  1  0.07252143  0.14787320  0.24007301  1  0.053482  0  0.098709  0.143483  0  0.988811  0
H  H48  1  0.15851222  0.06981569  0.22407035  1  0.012403  0  0.090686  0.127977  0  0.998201  0
H  H49  1  0.07044583  0.06054976  0.23735760  1  0.057542  0  0.101455  0.147072  0  0.978199  0
H  H50  1  0.49301274  0.48236525  0.81534122  1  0.0713  0  0.102275  0.147893  0  0.976495  0
H  H51  1  0.51910765  0.42950176  0.86398273  1  0.043674  0  0.091067  0.128151  0  0.998637  0
H  H52  1  0.45302550  0.52747497  0.86014970  1  0.080394  0  0.102604  0.148512  0  0.975987  0
H  H53  1  0.97343457  0.71402686  0.80605807  1  0.097279  0  0.098372  0.143155  0  0.9883  0
H  H54  1  0.91858593  0.69876196  0.85312159  1  0.044992  0  0.090321  0.128116  0  0.998758  0
H  H55  1  0.01788320  0.67434670  0.85106418  1  0.081966  0  0.101961  0.148707  0  0.976323  0
C  C56  1  0.06142469  0.31600462  0.56189406  1  1.567074  0  0.215598  0.61368  0  4.21652  0
C  C57  1  0.06921619  0.56989155  0.56836934  1  1.548075  0  0.228479  0.614608  0  4.153978  0
C  C58  1  0.18410209  0.43866568  0.43812715  1  1.520995  0  0.215828  0.614359  0  4.213721  0
C  C59  1  0.93756222  0.68471846  0.43848656  1  1.552824  0  0.214571  0.611864  0  4.216924  0
C  C60  1  0.92963779  0.43210809  0.43095127  1  1.590152  0  0.229912  0.618059  0  4.152098  0
C  C61  1  0.81645706  0.56163552  0.56227487  1  1.545533  0  0.214823  0.612975  0  4.216081  0
C  C62  1  0.56546315  0.31093314  0.31143609  1  1.565057  0  0.217888  0.612615  0  4.215599  0
C  C63  1  0.68204635  0.18131939  0.18037097  1  1.577753  0  0.229425  0.615679  0  4.152061  0
C  C64  1  0.68905261  0.43470975  0.18858654  1  1.546622  0  0.215047  0.613105  0  4.214714  0
C  C65  1  0.93498804  0.18830225  0.18892447  1  1.511203  0  0.214976  0.612425  0  4.213432  0
C  C66  1  0.82009182  0.31791455  0.31879079  1  1.601922  0  0.230568  0.617705  0  4.151537  0
C  C67  1  0.81138493  0.06502031  0.31122440  1  1.592236  0  0.217226  0.6113  0  4.215631  0
C  C68  1  0.43415610  0.68881698  0.68798514  1  1.549086  0  0.217374  0.610491  0  4.21588  0
C  C69  1  0.31791684  0.82024303  0.81886226  1  1.587447  0  0.230209  0.617932  0  4.15098  0
C  C70  1  0.18844157  0.93368311  0.68761113  1  1.555841  0  0.217133  0.610209  0  4.217179  0
C  C71  1  0.06515596  0.81089133  0.81145326  1  1.576465  0  0.215081  0.613292  0  4.216178  0
C  C72  1  0.18053345  0.68027682  0.68153910  1  1.547038  0  0.230183  0.617284  0  4.151993  0
C  C73  1  0.31274805  0.56604408  0.81177507  1  1.598385  0  0.214873  0.61212  0  4.21763  0
C  C74  1  0.43769195  0.18447199  0.93840878  1  1.541865  0  0.218409  0.611478  0  4.213793  0
C  C75  1  0.43240930  0.92954272  0.93103336  1  1.589449  0  0.2299  0.616519  0  4.153345  0
C  C76  1  0.68472441  0.93984505  0.93889196  1  1.582578  0  0.21742  0.608467  0  4.220279  0
C  C77  1  0.56127564  0.81576570  0.06177819  1  1.568162  0  0.216957  0.609156  0  4.220866  0
C  C78  1  0.56815604  0.06861325  0.06956019  1  1.57498  0  0.229862  0.616452  0  4.151567  0
C  C79  1  0.31448631  0.06162430  0.06066970  1  1.529224  0  0.217443  0.609291  0  4.217882  0
C  C80  1  0.89854719  0.40599015  0.40200768  1  0.043268  0  -0.01191  -0.059344  0  3.912792  0
C  C81  1  0.85145060  0.34438839  0.34741684  1  0.046001  0  -0.01143  -0.056482  0  3.914287  0
C  C82  1  0.82722686  0.44735146  0.38699382  1  -0.124126  0  -0.006203  0.100657  0  3.920478  0
C  C83  1  0.92289758  0.30319174  0.36228825  1  -0.134976  0  -0.006709  0.099783  0  3.920688  0
C  C84  1  0.80521468  0.41621820  0.36041133  1  0.036426  0  -0.084357  -0.137816  0  3.955938  0
C  C85  1  0.94481219  0.33419179  0.38898565  1  0.030482  0  -0.083931  -0.135387  0  3.952515  0
C  C86  1  0.09936052  0.59973280  0.59589867  1  0.025237  0  -0.012336  -0.057791  0  3.913957  0
C  C87  1  0.15027117  0.65049049  0.65401841  1  -0.025758  0  -0.011582  -0.056884  0  3.911803  0
C  C88  1  0.14274423  0.64265395  0.58270234  1  -0.070608  0  -0.006069  0.099607  0  3.921272  0
C  C89  1  0.10691256  0.60754284  0.66721550  1  -0.073321  0  -0.006657  0.099346  0  3.921592  0
C  C90  1  0.16705483  0.66692119  0.61157616  1  0.06856  0  -0.084286  -0.135045  0  3.952085  0
C  C91  1  0.08263783  0.58324660  0.63834752  1  0.016067  0  -0.085389  -0.136854  0  3.957139  0
C  C92  1  0.30375620  0.45535543  0.40130366  1  0.096442  0  -0.002653  0.14666  0  3.96211  0
C  C93  1  0.44625301  0.29595113  0.34908618  1  0.021777  0  -0.088721  -0.133932  0  3.965368  0
C  C94  1  0.25903052  0.41456621  0.41369009  1  -0.145609  0  -0.028826  -0.195522  0  3.93785  0
C  C95  1  0.49080810  0.33615620  0.33654287  1  -0.157203  0  -0.025128  -0.119214  0  3.986715  0
C  C96  1  0.37808209  0.33867309  0.37272180  1  -0.156636  0  -0.022949  -0.00303  0  4.095733  0
C  C97  1  0.37174313  0.41087037  0.37781445  1  -0.201973  0  -0.023131  -0.080516  0  4.042592  0
C  C98  1  0.72742562  0.57507371  0.63018718  1  0.008792  0  -0.002815  0.144462  0  3.971073  0
C  C99  1  0.52448051  0.67348348  0.62099409  1  0.019944  0  -0.088391  -0.133722  0  3.96384  0
C  C100  1  0.74233177  0.58569018  0.58749242  1  -0.139575  0  -0.029714  -0.196526  0  3.94344  0
C  C101  1  0.50927176  0.66331593  0.66336064  1  -0.085702  0  -0.025585  -0.118767  0  3.986655  0
C  C102  1  0.60368370  0.64156341  0.60854907  1  -0.169257  0  -0.02276  -0.003128  0  4.093796  0
C  C103  1  0.64763003  0.60750981  0.64168535  1  -0.138082  0  -0.023258  -0.079609  0  4.043886  0
C  C104  1  0.07554306  0.22692657  0.62989728  1  0.057292  0  -0.003416  0.144458  0  3.967019  0
C  C105  1  0.17415416  0.02404872  0.62071424  1  0.002957  0  -0.087758  -0.132634  0  3.964156  0
C  C106  1  0.08596073  0.24182665  0.58715637  1  -0.147991  0  -0.02913  -0.196134  0  3.938085  0
C  C107  1  0.16381678  0.00882618  0.66306889  1  -0.164806  0  -0.025781  -0.119689  0  3.988184  0
C  C108  1  0.14224327  0.10323003  0.60827669  1  -0.122016  0  -0.023127  -0.003312  0  4.094572  0
C  C109  1  0.10816417  0.14714241  0.64141836  1  -0.175522  0  -0.023868  -0.082024  0  4.045046  0
C  C110  1  0.84251426  0.80002265  0.39747800  1  0.107215  0  -0.001911  0.147531  0  3.965673  0
C  C111  1  0.90445108  0.94968255  0.35240224  1  0.062394  0  -0.088488  -0.132651  0  3.962677  0
C  C112  1  0.91185336  0.75902309  0.41354454  1  -0.193497  0  -0.029018  -0.194192  0  3.938625  0
C  C113  1  0.83572177  0.99050111  0.33632893  1  -0.212941  0  -0.025914  -0.120052  0  3.988442  0
C  C114  1  0.90769601  0.88015100  0.37470699  1  -0.190806  0  -0.0227  -0.004215  0  4.095736  0
C  C115  1  0.84124747  0.86925999  0.37529146  1  -0.178669  0  -0.022929  -0.079046  0  4.04411  0
C  C116  1  0.65423790  0.15403292  0.15036296  1  0.004082  0  -0.011233  -0.056743  0  3.912645  0
C  C117  1  0.59579738  0.09611755  0.09954412  1  0.002525  0  -0.011542  -0.056569  0  3.91183  0
C  C118  1  0.66706529  0.16747229  0.10717733  1  -0.068572  0  -0.006683  0.099874  0  3.922461  0
C  C119  1  0.58271448  0.08292915  0.14273053  1  -0.057694  0  -0.006303  0.100761  0  3.922275  0
C  C120  1  0.63816890  0.13859036  0.08290760  1  0.045741  0  -0.084959  -0.137971  0  3.95693  0
C  C121  1  0.61181960  0.11161377  0.16699902  1  0.034954  0  -0.084652  -0.136228  0  3.954277  0
C  C122  1  0.67443483  0.52303855  0.12040018  1  -0.000811  0  -0.002605  0.145888  0  3.964254  0
C  C123  1  0.57570597  0.72618135  0.12882617  1  0.039519  0  -0.0877  -0.132988  0  3.96384  0
C  C124  1  0.66393086  0.50868225  0.16316710  1  -0.081339  0  -0.02835  -0.194594  0  3.935512  0
C  C125  1  0.58626859  0.74082637  0.08643826  1  -0.089997  0  -0.025122  -0.11802  0  3.987551  0
C  C126  1  0.60757159  0.64713483  0.14157585  1  -0.194613  0  -0.023266  -0.003593  0  4.095682  0
C  C127  1  0.64179989  0.60274464  0.10863399  1  -0.170496  0  -0.023494  -0.080686  0  4.042652  0
C  C128  1  0.08130563  0.12418052  0.17849524  1  0.02659  0  -0.001996  0.146392  0  3.965641  0
C  C129  1  0.16900537  0.12587705  0.07238008  1  -0.0142  0  -0.088003  -0.132843  0  3.96616  0
C  C130  1  0.00987566  0.16350344  0.16452541  1  -0.082838  0  -0.028953  -0.194326  0  3.939248  0
C  C131  1  0.24010532  0.08675517  0.08595133  1  -0.121182  0  -0.026083  -0.119611  0  3.987526  0
C  C132  1  0.11079674  0.13988615  0.10577610  1  -0.203493  0  -0.022594  -0.00246  0  4.09509  0
C  C133  1  0.13848277  0.11115843  0.14433303  1  -0.166669  0  -0.023263  -0.080582  0  4.042834  0
C  C134  1  0.34427351  0.85127557  0.84771866  1  -0.017909  0  -0.012161  -0.058649  0  3.913961  0
C  C135  1  0.40604515  0.89826581  0.90230823  1  -0.035369  0  -0.011962  -0.057258  0  3.912738  0
C  C136  1  0.30297158  0.92258654  0.86274210  1  -0.059757  0  -0.006701  0.09999  0  3.922583  0
C  C137  1  0.44733216  0.82691786  0.88732816  1  -0.053812  0  -0.006879  0.099725  0  3.921671  0
C  C138  1  0.33416185  0.94446796  0.88936708  1  0.037952  0  -0.084436  -0.136021  0  3.954021  0
C  C139  1  0.41616872  0.80504503  0.86068047  1  0.035274  0  -0.085379  -0.136998  0  3.955684  0
C  C140  1  0.40776436  0.44983945  0.85254242  1  0.102322  0  -0.002681  0.145739  0  3.968018  0
C  C141  1  0.34473332  0.30076439  0.89738699  1  0.112368  0  -0.08794  -0.131876  0  3.963277  0
C  C142  1  0.33843907  0.49138276  0.83650570  1  -0.23006  0  -0.028904  -0.194461  0  3.937584  0
C  C143  1  0.41339094  0.25929795  0.91345469  1  -0.204215  0  -0.02553  -0.119033  0  3.985724  0
C  C144  1  0.34202933  0.37019227  0.87514521  1  -0.199577  0  -0.022719  -0.003507  0  4.093328  0
C  C145  1  0.40876403  0.38055567  0.87459927  1  -0.167232  0  -0.023055  -0.08003  0  4.042546  0
C  C146  1  0.94565087  0.79439473  0.84877396  1  0.042687  0  -0.002222  0.148284  0  3.962107  0
C  C147  1  0.80393083  0.95442291  0.90086075  1  0.029127  0  -0.088178  -0.133849  0  3.964605  0
C  C148  1  0.99047061  0.83500722  0.83611956  1  -0.160864  0  -0.02911  -0.19631  0  3.938655  0
C  C149  1  0.75917273  0.91451662  0.91366790  1  -0.183132  0  -0.025395  -0.118644  0  3.986092  0
C  C150  1  0.87188327  0.91127667  0.87722075  1  -0.169266  0  -0.022974  -0.002393  0  4.095682  0
C  C151  1  0.87785011  0.83908910  0.87234653  1  -0.144541  0  -0.023516  -0.082371  0  4.042568  0
C  C152  1  0.28507142  0.53353270  0.41066889  1  -0.078843  0  -0.232139  -0.395503  0  3.957378  0
C  C153  1  0.78523879  0.53595268  0.65991275  1  -0.066611  0  -0.231896  -0.394448  0  3.961641  0
C  C154  1  0.03642780  0.28448022  0.65978040  1  -0.067429  0  -0.23179  -0.394018  0  3.961703  0
C  C155  1  0.77859161  0.77633712  0.40213683  1  -0.066095  0  -0.23278  -0.398686  0  3.959199  0
C  C156  1  0.71349653  0.46517326  0.09068101  1  -0.038154  0  -0.23262  -0.395987  0  3.958051  0
C  C157  1  0.09692931  0.09910248  0.22229522  1  0.007261  0  -0.232378  -0.394409  0  3.960849  0
C  C158  1  0.47189099  0.47323271  0.84785937  1  -0.063612  0  -0.231785  -0.396472  0  3.959228  0
C  C159  1  0.96455041  0.71621179  0.83935636  1  -0.082527  0  -0.232522  -0.396806  0  3.958832  0
S  S160  1  0.29935210  0.32462020  0.39714303  1  0.269709  0  0.073569  0.113755  0  2.756403  0
S  S161  1  0.45029519  0.42566932  0.35332935  1  0.250195  0  0.079224  0.119669  0  2.764088  0
S  S162  1  0.66102456  0.63386260  0.56231650  1  0.266229  0  0.074323  0.114622  0  2.759862  0
S  S163  1  0.59072138  0.61510985  0.68820168  1  0.24952  0  0.077379  0.116434  0  2.766891  0
S  S164  1  0.13426418  0.16050191  0.56203096  1  0.26591  0  0.075141  0.11633  0  2.756995  0
S  S165  1  0.11561072  0.09022130  0.68792934  1  0.245537  0  0.079844  0.120849  0  2.766166  0
S  S166  1  0.97340798  0.80401215  0.40177024  1  0.267106  0  0.072302  0.111722  0  2.757777  0
S  S167  1  0.77492603  0.94505023  0.34821917  1  0.257455  0  0.080164  0.120883  0  2.767487  0
S  S168  1  0.61538408  0.59036946  0.18798672  1  0.250088  0  0.074143  0.114699  0  2.754998  0
S  S169  1  0.63472803  0.65904768  0.06192821  1  0.246144  0  0.079738  0.120033  0  2.764228  0
S  S170  1  0.01284162  0.18387274  0.11127782  1  0.305068  0  0.072781  0.112099  0  2.760728  0
S  S171  1  0.23666190  0.06684032  0.13911937  1  0.258593  0  0.079495  0.120114  0  2.765512  0
S  S172  1  0.27657438  0.44672448  0.84812832  1  0.270672  0  0.071649  0.110656  0  2.759603  0
S  S173  1  0.47473877  0.30423263  0.90165369  1  0.257239  0  0.078794  0.118808  0  2.765469  0
S  S174  1  0.95061723  0.92502624  0.85252516  1  0.264469  0  0.074357  0.114827  0  2.759723  0
S  S175  1  0.79918767  0.82478972  0.89712346  1  0.251769  0  0.079691  0.120829  0  2.764551  0
Br  Br176  1  0.75488312  0.54551747  0.40017061  1  -0.031015  0  0.02413  -0.056525  0  1.388545  0
Br  Br177  1  0.99545566  0.20517136  0.34896035  1  -0.032612  0  0.022501  -0.05855  0  1.387916  0
Br  Br178  1  0.17257880  0.67177011  0.52697179  1  -0.0239  0  0.025587  -0.054545  0  1.388524  0
Br  Br179  1  0.07741173  0.57802402  0.72296283  1  -0.026478  0  0.023405  -0.05731  0  1.388685  0
Br  Br180  1  0.72231331  0.22360090  0.07758995  1  -0.027951  0  0.023324  -0.057539  0  1.388099  0
Br  Br181  1  0.52664652  0.02773539  0.17232755  1  -0.024217  0  0.021602  -0.057253  0  1.381861  0
Br  Br182  1  0.20482577  0.99476253  0.84961999  1  -0.026534  0  0.022393  -0.056137  0  1.383744  0
Br  Br183  1  0.54549271  0.75470917  0.90047349  1  -0.026315  0  0.021694  -0.057119  0  1.383375  0
O  O184  1  0.00065535  0.49853833  0.49983037  1  -1.234296  0  -0.571107  -1.026378  0  2.531516  0
O  O185  1  0.07741515  0.31531427  0.52288655  1  -1.176438  0  -0.322651  -0.552284  0  2.332321  0
O  O186  1  0.03152131  0.53145414  0.58617033  1  -1.155999  0  -0.313119  -0.53868  0  2.326485  0
O  O187  1  0.15538206  0.50533230  0.44939908  1  -1.172323  0  -0.311494  -0.533697  0  2.35136  0
O  O188  1  0.02614812  0.37506658  0.58089775  1  -1.174816  0  -0.313254  -0.53738  0  2.347221  0
O  O189  1  0.15362744  0.39113948  0.44607431  1  -1.155168  0  -0.32362  -0.554319  0  2.329477  0
O  O190  1  0.08328045  0.58501584  0.52993276  1  -1.151996  0  -0.310103  -0.54015  0  2.439756  0
O  O191  1  0.00506459  0.65715655  0.44881086  1  -1.169367  0  -0.323433  -0.550935  0  2.343086  0
O  O192  1  0.88838531  0.49731475  0.44257506  1  -1.171792  0  -0.311734  -0.542859  0  2.443905  0
O  O193  1  0.89087353  0.65354879  0.44794733  1  -1.15801  0  -0.310232  -0.533183  0  2.349755  0
O  O194  1  0.99523656  0.38633204  0.44148828  1  -1.170687  0  -0.310473  -0.537418  0  2.317917  0
O  O195  1  0.87583441  0.52574802  0.58095009  1  -1.165586  0  -0.312088  -0.537975  0  2.344407  0
O  O196  1  0.81526907  0.57886800  0.52332712  1  -1.161508  0  -0.322428  -0.548987  0  2.344932  0
O  O197  1  0.74835355  0.25052957  0.25050436  1  -1.223859  0  -0.570621  -1.027552  0  2.525217  0
O  O198  1  0.59651527  0.35784875  0.30345422  1  -1.184539  0  -0.321043  -0.550848  0  2.333939  0
O  O199  1  0.66449830  0.16337832  0.21844956  1  -1.169375  0  -0.311364  -0.537637  0  2.321945  0
O  O200  1  0.72576145  0.37568045  0.16970628  1  -1.16763  0  -0.310908  -0.53235  0  2.349551  0
O  O201  1  0.59247979  0.24470917  0.29987360  1  -1.168938  0  -0.318037  -0.542208  0  2.311443  0
O  O202  1  0.67233348  0.43536423  0.22759720  1  -1.18027  0  -0.323044  -0.553494  0  2.330755  0
O  O203  1  0.72048800  0.21972201  0.16566816  1  -1.165363  0  -0.310856  -0.541097  0  2.441444  0
O  O204  1  0.87701152  0.22571114  0.16906421  1  -1.166137  0  -0.323168  -0.550772  0  2.341026  0
O  O205  1  0.86157913  0.25290561  0.30698945  1  -1.181117  0  -0.312196  -0.543111  0  2.445934  0
O  O206  1  0.93340807  0.17058206  0.22784881  1  -1.15213  0  -0.310734  -0.533503  0  2.349719  0
O  O207  1  0.75402876  0.36317264  0.30872374  1  -1.17499  0  -0.310911  -0.53734  0  2.317616  0
O  O208  1  0.74480331  0.09305306  0.29982880  1  -1.171424  0  -0.321157  -0.552171  0  2.331336  0
O  O209  1  0.85900297  0.09506656  0.30296714  1  -1.178898  0  -0.317749  -0.539241  0  2.324889  0
O  O210  1  0.25077393  0.75031507  0.74928277  1  -1.219075  0  -0.570417  -1.028671  0  2.525283  0
O  O211  1  0.37598637  0.72400468  0.66840503  1  -1.163626  0  -0.317293  -0.540465  0  2.310403  0
O  O212  1  0.36367909  0.75436501  0.80857140  1  -1.172584  0  -0.313469  -0.539525  0  2.323358  0
O  O213  1  0.17149460  0.93368824  0.72656265  1  -1.154639  0  -0.319965  -0.546595  0  2.342689  0
O  O214  1  0.43413278  0.67324249  0.72701483  1  -1.168809  0  -0.322064  -0.551037  0  2.337103  0
O  O215  1  0.22416998  0.87543609  0.66809008  1  -1.164947  0  -0.317765  -0.542494  0  2.309954  0
O  O216  1  0.25290034  0.86131748  0.80703533  1  -1.170002  0  -0.310191  -0.541809  0  2.438247  0
O  O217  1  0.09472754  0.85918810  0.80286985  1  -1.177327  0  -0.322292  -0.550725  0  2.340354  0
O  O218  1  0.16545099  0.66600815  0.71996907  1  -1.148065  0  -0.310671  -0.540634  0  2.440297  0
O  O219  1  0.09480539  0.74389191  0.80057969  1  -1.171303  0  -0.311171  -0.534218  0  2.348902  0
O  O220  1  0.21919621  0.71770905  0.66375657  1  -1.15396  0  -0.312148  -0.539392  0  2.320856  0
O  O221  1  0.35878130  0.59805658  0.80298135  1  -1.17015  0  -0.311591  -0.538032  0  2.341798  0
O  O222  1  0.24563493  0.59307330  0.80099216  1  -1.174836  0  -0.323273  -0.549804  0  2.34569  0
O  O223  1  0.49928539  0.00133726  0.99964313  1  -1.225029  0  -0.57026  -1.029407  0  2.52082  0
O  O224  1  0.50408886  0.15704291  0.95000824  1  -1.168493  0  -0.321444  -0.550763  0  2.334246  0
O  O225  1  0.38693979  0.99563787  0.94105353  1  -1.173683  0  -0.312001  -0.538686  0  2.323509  0
O  O226  1  0.65444265  0.89226909  0.94738138  1  -1.170759  0  -0.319886  -0.545533  0  2.345398  0
O  O227  1  0.39069696  0.15371490  0.94624566  1  -1.157335  0  -0.317781  -0.540917  0  2.310332  0
O  O228  1  0.65693296  0.00637805  0.95011408  1  -1.17241  0  -0.317394  -0.540706  0  2.308108  0
O  O229  1  0.49729431  0.88822097  0.94299339  1  -1.171458  0  -0.310291  -0.540082  0  2.438779  0
O  O230  1  0.57940393  0.81600733  0.02286248  1  -1.176769  0  -0.320226  -0.547389  0  2.342649  0
O  O231  1  0.52995200  0.02997921  0.08430425  1  -1.169875  0  -0.310156  -0.540769  0  2.44091  0
O  O232  1  0.52373214  0.87394837  0.08118313  1  -1.173977  0  -0.316902  -0.539216  0  2.319206  0
O  O233  1  0.58561207  0.08653090  0.03146660  1  -1.163863  0  -0.311979  -0.538337  0  2.32152  0
O  O234  1  0.31455923  0.07799755  0.02176695  1  -1.142409  0  -0.317482  -0.541028  0  2.309648  0
O  O235  1  0.37280258  0.02524396  0.08022911  1  -1.171596  0  -0.320344  -0.546745  0  2.345511  0
