# generated using pymatgen
data_LiH13C17N4
_symmetry_space_group_name_H-M   'P 1'
_cell_length_a   7.87851732
_cell_length_b   11.14550352
_cell_length_c   17.30360000
_cell_angle_alpha   90.00000000
_cell_angle_beta   90.00000000
_cell_angle_gamma   90.00000000
_symmetry_Int_Tables_number   1
_chemical_formula_structural   LiH13C17N4
_chemical_formula_sum   'Li4 H52 C68 N16'
_cell_volume   1519.42985119
_cell_formula_units_Z   4
loop_
 _symmetry_equiv_pos_site_id
 _symmetry_equiv_pos_as_xyz
  1  'x, y, z'
loop_
 _atom_site_type_symbol
 _atom_site_label
 _atom_site_symmetry_multiplicity
 _atom_site_fract_x
 _atom_site_fract_y
 _atom_site_fract_z
 _atom_site_occupancy
 _atom_site_hle17_bader_spin_density
 _atom_site_hle17_ddec_charge
 _atom_site_hle17_ddec_spin_density
 _atom_site_hle17_ddec_sum_bond_order
 _atom_site_hle17_magmom
 _atom_site_hse06_10hf_bader_spin_density
 _atom_site_hse06_10hf_ddec_charge
 _atom_site_hse06_10hf_ddec_spin_density
 _atom_site_hse06_10hf_ddec_sum_bond_order
 _atom_site_hse06_10hf_magmom
 _atom_site_hse06_bader_spin_density
 _atom_site_hse06_ddec_charge
 _atom_site_hse06_ddec_spin_density
 _atom_site_hse06_ddec_sum_bond_order
 _atom_site_hse06_magmom
 _atom_site_pbe_bader_charge
 _atom_site_pbe_bader_spin_density
 _atom_site_pbe_cm5_charge
 _atom_site_pbe_ddec_charge
 _atom_site_pbe_ddec_spin_density
 _atom_site_pbe_ddec_sum_bond_order
 _atom_site_pbe_magmom
Li  Li0  1  0.08722834  0.58961356  0.09365334  1  0  0.749452  0  0.570577  0  0  0.666819  0  0.738148  0  0  0.678534  0  0.721545  0  0.843537  0  0.558885  0.658647  0  0.749672  0
Li  Li1  1  0.58722724  0.41038523  0.90634608  1  0  0.749436  0  0.5706  0  0  0.66683  0  0.738128  0  0  0.678545  0  0.721525  0  0.843525  0  0.55888  0.658658  0  0.749652  0
Li  Li2  1  0.08722834  0.08961461  0.40634608  1  0  0.749448  0  0.570583  0  0  0.666844  0  0.738104  0  0  0.67856  0  0.7215  0  0.843527  0  0.55889  0.658673  0  0.749627  0
Li  Li3  1  0.58722851  0.91038507  0.59365334  1  0  0.749442  0  0.570596  0  0  0.666833  0  0.738121  0  0  0.678549  0  0.721517  0  0.843525  0  0.558891  0.658661  0  0.749645  0
H  H4  1  0.74563014  0.55062115  0.01842044  1  0  0.051568  0  0.961969  0  0  0.061301  0  1.031379  0  0  0.063009  0  1.029115  0  0.084828  0  0.123734  0.060094  0  1.032857  0
H  H5  1  0.24562997  0.44937853  0.98157898  1  0  0.051531  0  0.962011  0  0  0.061263  0  1.031429  0  0  0.06297  0  1.029165  0  0.084828  0  0.123714  0.060055  0  1.032907  0
H  H6  1  0.74563014  0.05062221  0.48157956  1  0  0.051556  0  0.961972  0  0  0.061292  0  1.031381  0  0  0.063  0  1.029117  0  0.084809  0  0.123725  0.060084  0  1.03286  0
H  H7  1  0.24563124  0.94937837  0.51842044  1  0  0.051561  0  0.961988  0  0  0.061293  0  1.031401  0  0  0.063001  0  1.029137  0  0.084824  0  0.123716  0.060086  0  1.032879  0
H  H8  1  0.70463004  0.10672286  0.98452056  1  0  0.094477  0  0.970663  0  0  0.106716  0  1.031829  0  0  0.109597  0  1.030153  0  0.054775  0  0.096931  0.104649  0  1.033078  0
H  H9  1  0.20462987  0.89327683  0.01547944  1  0  0.09447  0  0.970654  0  0  0.106706  0  1.031824  0  0  0.109588  0  1.030148  0  0.054777  0  0.096927  0.10464  0  1.033072  0
H  H10  1  0.70463004  0.60672270  0.51547944  1  0  0.094481  0  0.970647  0  0  0.106717  0  1.031816  0  0  0.109598  0  1.030139  0  0.054778  0  0.096926  0.10465  0  1.033064  0
H  H11  1  0.20462987  0.39327609  0.48452056  1  0  0.094472  0  0.970661  0  0  0.106708  0  1.031828  0  0  0.10959  0  1.030153  0  0.054781  0  0.096929  0.104642  0  1.033077  0
H  H12  1  0.93663055  0.97753771  0.03600580  1  0  0.073076  0  0.986511  0  0  0.084173  0  1.05054  0  0  0.086442  0  1.050081  0  0.076204  0  0.087681  0.082565  0  1.050898  0
H  H13  1  0.43663038  0.02246287  0.96399420  1  0  0.073081  0  0.986488  0  0  0.084179  0  1.050516  0  0  0.086449  0  1.050057  0  0.076207  0  0.087687  0.082572  0  1.050874  0
H  H14  1  0.93663182  0.47753787  0.46399362  1  0  0.073096  0  0.986501  0  0  0.084192  0  1.050532  0  0  0.086462  0  1.050074  0  0.076217  0  0.087691  0.082584  0  1.05089  0
H  H15  1  0.43663165  0.52246182  0.53600580  1  0  0.073083  0  0.986509  0  0  0.084178  0  1.050539  0  0  0.086448  0  1.050081  0  0.076213  0  0.087687  0.082571  0  1.050896  0
H  H16  1  0.18628124  0.06654253  0.10219434  1  0  0.073955  0  0.97806  0  0  0.086072  0  1.039328  0  0  0.088598  0  1.039042  0  0.046025  0  0.087854  0.084297  0  1.039558  0
H  H17  1  0.68628014  0.93345715  0.89780566  1  0  0.07394  0  0.978066  0  0  0.086067  0  1.039321  0  0  0.088595  0  1.039034  0  0.046038  0  0.08786  0.084293  0  1.03955  0
H  H18  1  0.18628124  0.56654327  0.39780508  1  0  0.073946  0  0.978027  0  0  0.086063  0  1.039296  0  0  0.088589  0  1.03901  0  0.046098  0  0.087845  0.084288  0  1.039527  0
H  H19  1  0.68628014  0.43345731  0.60219492  1  0  0.073967  0  0.978063  0  0  0.086087  0  1.039325  0  0  0.088614  0  1.039038  0  0.046099  0  0.087861  0.084313  0  1.039556  0
H  H20  1  0.21102321  0.28748006  0.12037148  1  0  0.096531  0  0.958451  0  0  0.108851  0  1.0153  0  0  0.111991  0  1.014271  0  0.043206  0  0.099559  0.106624  0  1.016083  0
H  H21  1  0.71102338  0.71251873  0.87962794  1  0  0.09657  0  0.958482  0  0  0.108895  0  1.015316  0  0  0.112035  0  1.014287  0  0.043202  0  0.099584  0.106669  0  1.016099  0
H  H22  1  0.21102321  0.78748169  0.37962794  1  0  0.096569  0  0.958482  0  0  0.108893  0  1.015318  0  0  0.112033  0  1.014289  0  0.043198  0  0.099567  0.106666  0  1.016102  0
H  H23  1  0.71102211  0.21251889  0.62037264  1  0  0.096525  0  0.958454  0  0  0.108846  0  1.0153  0  0  0.111987  0  1.01427  0  0.043208  0  0.099551  0.106621  0  1.016083  0
H  H24  1  0.82269921  0.75556030  0.03574285  1  0  0.073002  0  0.94115  0  0  0.080794  0  1.006448  0  0  0.083223  0  1.004635  0  0.060637  0  0.120417  0.078998  0  1.007851  0
H  H25  1  0.32269904  0.24443938  0.96425657  1  0  0.072998  0  0.941133  0  0  0.080826  0  1.006401  0  0  0.083257  0  1.004585  0  0.060622  0  0.12043  0.079027  0  1.007803  0
H  H26  1  0.82270048  0.25556046  0.46425715  1  0  0.072962  0  0.941134  0  0  0.080757  0  1.006443  0  0  0.083187  0  1.004629  0  0.060633  0  0.120395  0.078961  0  1.007846  0
H  H27  1  0.32269777  0.74443922  0.53574285  1  0  0.072982  0  0.941153  0  0  0.080805  0  1.006426  0  0  0.083235  0  1.004611  0  0.06061  0  0.120412  0.079007  0  1.007827  0
H  H28  1  0.58225042  0.87243255  0.08962701  1  0  0.106926  0  0.980099  0  0  0.1135  0  1.047013  0  0  0.115603  0  1.048686  0  0.124758  0  0.104453  0.111956  0  1.046044  0
H  H29  1  0.08225152  0.12756714  0.91037241  1  0  0.106916  0  0.980106  0  0  0.113491  0  1.047017  0  0  0.115594  0  1.048689  0  0.124773  0  0.104453  0.111946  0  1.046048  0
H  H30  1  0.58225169  0.37243360  0.41037414  1  0  0.106902  0  0.980113  0  0  0.113476  0  1.047031  0  0  0.115577  0  1.048706  0  0.124736  0  0.10443  0.111932  0  1.046062  0
H  H31  1  0.08225152  0.62756608  0.58962759  1  0  0.106922  0  0.980136  0  0  0.113493  0  1.047052  0  0  0.115597  0  1.048723  0  0.124761  0  0.104457  0.111949  0  1.046083  0
H  H32  1  0.78182477  0.79501119  0.31775122  1  0  0.117995  0  0.965967  0  0  0.126103  0  1.026059  0  0  0.128646  0  1.026834  0  0.076986  0  0.110716  0.12427  0  1.025652  0
H  H33  1  0.28182333  0.20498850  0.68224820  1  0  0.118001  0  0.965949  0  0  0.126109  0  1.02605  0  0  0.128651  0  1.026825  0  0.076971  0  0.110707  0.124276  0  1.025643  0
H  H34  1  0.78182350  0.29501135  0.18224936  1  0  0.118021  0  0.965941  0  0  0.12613  0  1.026033  0  0  0.128672  0  1.026808  0  0.077002  0  0.110731  0.124297  0  1.025626  0
H  H35  1  0.28182460  0.70498834  0.81775180  1  0  0.118013  0  0.965936  0  0  0.126119  0  1.026039  0  0  0.128661  0  1.026814  0  0.076972  0  0.110708  0.124286  0  1.025632  0
H  H36  1  0.01120896  0.67875893  0.25418237  1  0  0.069583  0  0.958909  0  0  0.073601  0  1.031835  0  0  0.075767  0  1.030805  0  0.093974  0  0.114933  0.072032  0  1.032567  0
H  H37  1  0.51120786  0.32124166  0.74581763  1  0  0.06959  0  0.958916  0  0  0.073605  0  1.031839  0  0  0.075771  0  1.03081  0  0.093978  0  0.114937  0.072037  0  1.03257  0
H  H38  1  0.01121023  0.17875908  0.24581763  1  0  0.069579  0  0.958882  0  0  0.0736  0  1.031804  0  0  0.075767  0  1.030774  0  0.094004  0  0.114931  0.072031  0  1.032537  0
H  H39  1  0.51120913  0.82124150  0.75418179  1  0  0.069596  0  0.958903  0  0  0.073611  0  1.031826  0  0  0.075778  0  1.030796  0  0.09398  0  0.114937  0.072043  0  1.032558  0
H  H40  1  0.09743331  0.95954391  0.24590721  1  0  0.070986  0  0.933412  0  0  0.080361  0  0.996287  0  0  0.082602  0  0.995248  0  0.072727  0  0.117891  0.078719  0  0.997091  0
H  H41  1  0.59743348  0.04045488  0.75409163  1  0  0.070978  0  0.933426  0  0  0.080325  0  0.996332  0  0  0.08255  0  0.995311  0  0.072698  0  0.117873  0.078683  0  0.997136  0
H  H42  1  0.09743077  0.45954765  0.25409221  1  0  0.070958  0  0.933427  0  0  0.080331  0  0.996305  0  0  0.082556  0  0.995285  0  0.072662  0  0.117877  0.078689  0  0.997109  0
H  H43  1  0.59743348  0.54045382  0.74590837  1  0  0.070981  0  0.933431  0  0  0.080326  0  0.996337  0  0  0.082552  0  0.995316  0  0.072703  0  0.117867  0.078684  0  0.997141  0
H  H44  1  0.31954743  0.84568454  0.17382048  1  0  0.113786  0  0.942071  0  0  0.123756  0  1.002826  0  0  0.126872  0  1.002325  0  0.095045  0  0.11364  0.121515  0  1.003345  0
H  H45  1  0.81954507  0.15431784  0.82617779  1  0  0.113787  0  0.942071  0  0  0.123775  0  1.00281  0  0  0.126889  0  1.002307  0  0.095127  0  0.113667  0.121534  0  1.003328  0
H  H46  1  0.31954363  0.34568559  0.32617895  1  0  0.113789  0  0.942079  0  0  0.123747  0  1.002851  0  0  0.12686  0  1.002349  0  0.094961  0  0.113663  0.121508  0  1.003367  0
H  H47  1  0.81954507  0.65431768  0.67382221  1  0  0.1138  0  0.942069  0  0  0.123788  0  1.002806  0  0  0.126903  0  1.002303  0  0.095129  0  0.113668  0.121548  0  1.003323  0
H  H48  1  0.69097519  0.00108833  0.32847962  1  0  0.112988  0  0.96196  0  0  0.120291  0  1.027126  0  0  0.123072  0  1.02726  0  0.102233  0  0.110958  0.118301  0  1.02716  0
H  H49  1  0.19097502  0.99891225  0.67152096  1  0  0.113004  0  0.961945  0  0  0.120307  0  1.027104  0  0  0.123087  0  1.027238  0  0.102238  0  0.110968  0.118317  0  1.027138  0
H  H50  1  0.69097392  0.50108817  0.17152038  1  0  0.113033  0  0.961975  0  0  0.120326  0  1.027142  0  0  0.123106  0  1.027276  0  0.10224  0  0.110974  0.118336  0  1.027177  0
H  H51  1  0.19097629  0.49891151  0.82847904  1  0  0.113008  0  0.961977  0  0  0.12031  0  1.027135  0  0  0.12309  0  1.027269  0  0.102223  0  0.110966  0.11832  0  1.02717  0
H  H52  1  0.45378462  0.10966844  0.39309970  1  0  0.076445  0  0.957385  0  0  0.082323  0  1.024813  0  0  0.083889  0  1.024992  0  0.101453  0  0.119601  0.081131  0  1.024783  0
H  H53  1  0.95378606  0.89033304  0.60689972  1  0  0.07645  0  0.957361  0  0  0.082332  0  1.02479  0  0  0.083898  0  1.024969  0  0.101441  0  0.119593  0.08114  0  1.02476  0
H  H54  1  0.45378589  0.60966739  0.10689914  1  0  0.076475  0  0.957362  0  0  0.082353  0  1.024788  0  0  0.08392  0  1.024967  0  0.101445  0  0.119621  0.08114  0  1.024778  0
H  H55  1  0.95378733  0.39033230  0.89309970  1  0  0.076462  0  0.957365  0  0  0.082348  0  1.02478  0  0  0.083914  0  1.024959  0  0.101459  0  0.11959  0.081156  0  1.024751  0
C  C56  1  0.79952226  0.46175123  0.02762720  1  0  0.24187  0  3.835812  0  0  0.196671  0  4.117106  0  0  0.211277  0  4.128372  0  0.947881  0  0.127179  0.187283  0  4.108858  0
C  C57  1  0.29952209  0.53824755  0.97237280  1  0  0.241906  0  3.835798  0  0  0.196704  0  4.117091  0  0  0.211311  0  4.128357  0  0.947857  0  0.127192  0.187316  0  4.108843  0
C  C58  1  0.79952226  0.96175197  0.47237280  1  0  0.241884  0  3.835757  0  0  0.196681  0  4.117054  0  0  0.211286  0  4.12832  0  0.947879  0  0.127197  0.187293  0  4.108807  0
C  C59  1  0.29952336  0.03824861  0.52762720  1  0  0.241876  0  3.835861  0  0  0.196678  0  4.117158  0  0  0.211284  0  4.128424  0  0.947894  0  0.127192  0.18729  0  4.10891  0
C  C60  1  0.97040086  0.32234703  0.06243787  1  0  0.14382  0  3.852852  0  0  0.14705  0  4.094866  0  0  0.150075  0  4.118191  0  0.38903  0  0.07419  0.145017  0  4.079055  0
C  C61  1  0.47040069  0.67765265  0.93756155  1  0  0.143828  0  3.852849  0  0  0.147046  0  4.094875  0  0  0.15007  0  4.1182  0  0.389032  0  0.074188  0.145014  0  4.079062  0
C  C62  1  0.97040086  0.82234777  0.43756155  1  0  0.143873  0  3.852822  0  0  0.147098  0  4.094846  0  0  0.150122  0  4.11817  0  0.389041  0  0.074202  0.145066  0  4.079032  0
C  C63  1  0.47040069  0.17765281  0.56243903  1  0  0.143841  0  3.852796  0  0  0.147072  0  4.09482  0  0  0.150097  0  4.118145  0  0.389022  0  0.074184  0.145039  0  4.079009  0
C  C64  1  0.82785881  0.27089220  0.02280970  1  0  0.148425  0  3.862013  0  0  0.15158  0  4.10293  0  0  0.155004  0  4.125251  0  0.375418  0  0.073565  0.149288  0  4.087746  0
C  C65  1  0.32785864  0.72910748  0.97718972  1  0  0.148406  0  3.862067  0  0  0.151576  0  4.102966  0  0  0.155  0  4.125287  0  0.375423  0  0.073558  0.149284  0  4.087781  0
C  C66  1  0.82785754  0.77089205  0.47718972  1  0  0.148382  0  3.862049  0  0  0.151534  0  4.102974  0  0  0.154958  0  4.125294  0  0.37543  0  0.073551  0.149241  0  4.08779  0
C  C67  1  0.32785864  0.22910764  0.52280970  1  0  0.148403  0  3.862049  0  0  0.151548  0  4.102977  0  0  0.154973  0  4.125298  0  0.375423  0  0.073553  0.149257  0  4.087794  0
C  C68  1  0.81425219  0.14628321  0.01337121  1  0  -0.165998  0  3.786915  0  0  -0.181489  0  4.032023  0  0  -0.183519  0  4.050931  0  -0.027361  0  -0.106318  -0.17999  0  4.019043  0
C  C69  1  0.31425202  0.85371648  0.98662879  1  0  -0.165985  0  3.786894  0  0  -0.181476  0  4.031994  0  0  -0.183506  0  4.050902  0  -0.027351  0  -0.106302  -0.179978  0  4.019014  0
C  C70  1  0.81425219  0.64628305  0.48662822  1  0  -0.165995  0  3.786968  0  0  -0.181479  0  4.032068  0  0  -0.183509  0  4.050976  0  -0.027364  0  -0.106304  -0.179981  0  4.019089  0
C  C71  1  0.31425202  0.35371664  0.51337178  1  0  -0.165974  0  3.786966  0  0  -0.181455  0  4.032066  0  0  -0.183486  0  4.050975  0  -0.027363  0  -0.106292  -0.179957  0  4.019087  0
C  C72  1  0.94440866  0.07464355  0.04267262  1  0  -0.111573  0  3.858963  0  0  -0.124927  0  4.111642  0  0  -0.127351  0  4.134883  0  -0.092819  0  -0.119864  -0.123113  0  4.095616  0
C  C73  1  0.44440976  0.92535613  0.95732680  1  0  -0.111581  0  3.858964  0  0  -0.124936  0  4.111641  0  0  -0.127359  0  4.134883  0  -0.092813  0  -0.119877  -0.123123  0  4.095616  0
C  C74  1  0.94440866  0.57464429  0.45732680  1  0  -0.11159  0  3.85902  0  0  -0.124946  0  4.111697  0  0  -0.12737  0  4.134939  0  -0.092812  0  -0.119868  -0.123133  0  4.095671  0
C  C75  1  0.44440849  0.42535629  0.54267320  1  0  -0.111558  0  3.859012  0  0  -0.124909  0  4.111682  0  0  -0.127333  0  4.134924  0  -0.092821  0  -0.119861  -0.123096  0  4.095657  0
C  C76  1  0.08627131  0.12529089  0.08051562  1  0  -0.111544  0  3.848481  0  0  -0.124059  0  4.099792  0  0  -0.126968  0  4.122875  0  -0.117161  0  -0.118604  -0.121949  0  4.083895  0
C  C77  1  0.58627021  0.87470880  0.91948438  1  0  -0.111505  0  3.848516  0  0  -0.124027  0  4.099824  0  0  -0.126937  0  4.122906  0  -0.117173  0  -0.118599  -0.121918  0  4.083928  0
C  C78  1  0.08627131  0.62529162  0.41948381  1  0  -0.111528  0  3.848467  0  0  -0.124042  0  4.09978  0  0  -0.126951  0  4.122864  0  -0.117223  0  -0.118601  -0.121932  0  4.083884  0
C  C79  1  0.58627021  0.37470896  0.58051677  1  0  -0.111596  0  3.848535  0  0  -0.124116  0  4.099851  0  0  -0.127025  0  4.122933  0  -0.117229  0  -0.118631  -0.122006  0  4.083955  0
C  C80  1  0.10127540  0.24901701  0.09090594  1  0  -0.169707  0  3.787979  0  0  -0.182866  0  4.034756  0  0  -0.185414  0  4.054314  0  -0.057584  0  -0.103583  -0.181043  0  4.021374  0
C  C81  1  0.60127557  0.75098267  0.90909348  1  0  -0.169779  0  3.788038  0  0  -0.18294  0  4.034821  0  0  -0.185489  0  4.05438  0  -0.057593  0  -0.103622  -0.181119  0  4.02144  0
C  C82  1  0.10127540  0.74901775  0.40909348  1  0  -0.169784  0  3.788073  0  0  -0.182948  0  4.034856  0  0  -0.185496  0  4.054414  0  -0.057607  0  -0.103603  -0.181124  0  4.021473  0
C  C83  1  0.60127430  0.25098283  0.59090709  1  0  -0.169685  0  3.787974  0  0  -0.182844  0  4.034747  0  0  -0.185392  0  4.054305  0  -0.0576  0  -0.103567  -0.181021  0  4.021364  0
C  C84  1  0.80884635  0.76552934  0.09824256  1  0  0.132977  0  3.734474  0  0  0.106958  0  3.991024  0  0  0.112118  0  4.008567  0  0.49273  0  0.053015  0.103647  0  3.979133  0
C  C85  1  0.30884745  0.23447034  0.90175686  1  0  0.133012  0  3.734421  0  0  0.106954  0  3.990993  0  0  0.112114  0  4.008538  0  0.492667  0  0.053032  0.103649  0  3.979096  0
C  C86  1  0.80884762  0.26552950  0.40175744  1  0  0.133053  0  3.734388  0  0  0.107015  0  3.990961  0  0  0.112175  0  4.008505  0  0.492735  0  0.053038  0.103705  0  3.979069  0
C  C87  1  0.30884745  0.73447018  0.59824256  1  0  0.132991  0  3.734412  0  0  0.106932  0  3.99099  0  0  0.112093  0  4.008535  0  0.492761  0  0.053022  0.103626  0  3.979095  0
C  C88  1  0.67388695  0.83099252  0.12856573  1  0  -0.156435  0  3.696619  0  0  -0.174261  0  3.941881  0  0  -0.18142  0  3.96436  0  0.001192  0  -0.079057  -0.169593  0  3.926757  0
C  C89  1  0.17389059  0.16900537  0.87143427  1  0  -0.156442  0  3.696613  0  0  -0.174301  0  3.941869  0  0  -0.181462  0  3.964349  0  0.001199  0  -0.079096  -0.16963  0  3.926745  0
C  C90  1  0.67388695  0.33099447  0.37143542  1  0  -0.156398  0  3.696565  0  0  -0.174229  0  3.941807  0  0  -0.181386  0  3.964286  0  0.001192  0  -0.079025  -0.16956  0  3.926686  0
C  C91  1  0.17388932  0.66900432  0.62856573  1  0  -0.156412  0  3.696578  0  0  -0.174264  0  3.941822  0  0  -0.181424  0  3.964302  0  0.001201  0  -0.079068  -0.169595  0  3.9267  0
C  C92  1  0.66206620  0.84432345  0.20891722  1  0  0.091668  0  3.768417  0  0  0.104861  0  3.993821  0  0  0.10811  0  4.01501  0  -0.083683  0  0.012202  0.102849  0  3.979271  0
C  C93  1  0.16206730  0.15567623  0.79108220  1  0  0.091625  0  3.768583  0  0  0.104901  0  3.993844  0  0  0.108152  0  4.015031  0  -0.083681  0  0.012226  0.102884  0  3.979302  0
C  C94  1  0.66206620  0.34432361  0.29108278  1  0  0.091588  0  3.76848  0  0  0.10483  0  3.993831  0  0  0.108076  0  4.015023  0  -0.083673  0  0.012188  0.102814  0  3.979289  0
C  C95  1  0.16206730  0.65567518  0.70891780  1  0  0.091582  0  3.768593  0  0  0.104866  0  3.993847  0  0  0.108114  0  4.015036  0  -0.083694  0  0.012181  0.102848  0  3.979308  0
C  C96  1  0.78625835  0.78918911  0.25492325  1  0  -0.158031  0  3.68967  0  0  -0.174251  0  3.929931  0  0  -0.180809  0  3.95072  0  0.04929  0  -0.078601  -0.169996  0  3.915925  0
C  C97  1  0.28625818  0.21081147  0.74507617  1  0  -0.157992  0  3.6897  0  0  -0.174249  0  3.929937  0  0  -0.180808  0  3.950726  0  0.04928  0  -0.078557  -0.169993  0  3.915935  0
C  C98  1  0.78625708  0.28918927  0.24507732  1  0  -0.158012  0  3.689628  0  0  -0.174252  0  3.929881  0  0  -0.180809  0  3.95067  0  0.049282  0  -0.078596  -0.169995  0  3.915877  0
C  C99  1  0.28625818  0.71081131  0.75492383  1  0  -0.158003  0  3.689682  0  0  -0.174258  0  3.929915  0  0  -0.180816  0  3.950705  0  0.049285  0  -0.078554  -0.170002  0  3.915913  0
C  C100  1  0.91452867  0.72362186  0.21939943  1  0  0.129055  0  3.747685  0  0  0.103279  0  4.004154  0  0  0.108828  0  4.02125  0  0.440031  0  0.049793  0.099762  0  3.992456  0
C  C101  1  0.41452850  0.27637782  0.78060057  1  0  0.129022  0  3.74766  0  0  0.103258  0  4.004119  0  0  0.108808  0  4.021215  0  0.440036  0  0.04978  0.099741  0  3.992422  0
C  C102  1  0.91452994  0.22362202  0.28060115  1  0  0.129085  0  3.747564  0  0  0.103309  0  4.004034  0  0  0.108859  0  4.021129  0  0.440044  0  0.049819  0.099793  0  3.992337  0
C  C103  1  0.41452850  0.77637767  0.71939943  1  0  0.129022  0  3.747664  0  0  0.103259  0  4.004122  0  0  0.108808  0  4.021218  0  0.440039  0  0.049783  0.099742  0  3.992424  0
C  C104  1  0.23116278  0.96815814  0.26173918  1  0  0.131962  0  3.747366  0  0  0.10533  0  4.00676  0  0  0.110973  0  4.024176  0  0.483059  0  0.051671  0.101749  0  3.994875  0
C  C105  1  0.73116295  0.03184064  0.73826082  1  0  0.132004  0  3.747371  0  0  0.105396  0  4.006767  0  0  0.111052  0  4.024181  0  0.483099  0  0.051702  0.101815  0  3.994882  0
C  C106  1  0.23116152  0.46816099  0.23826140  1  0  0.131999  0  3.747337  0  0  0.105371  0  4.006726  0  0  0.111027  0  4.024141  0  0.483107  0  0.0517  0.10179  0  3.994842  0
C  C107  1  0.73116295  0.53183959  0.76173860  1  0  0.132022  0  3.747381  0  0  0.105415  0  4.006771  0  0  0.111072  0  4.024187  0  0.483088  0  0.051715  0.101834  0  3.994887  0
C  C108  1  0.35520135  0.90471731  0.22144467  1  0  -0.166419  0  3.700909  0  0  -0.183585  0  3.942972  0  0  -0.190848  0  3.963755  0  -0.030579  0  -0.079895  -0.178875  0  3.928942  0
C  C109  1  0.85520152  0.09528147  0.77855591  1  0  -0.166435  0  3.70091  0  0  -0.18364  0  3.942968  0  0  -0.190897  0  3.963742  0  -0.030638  0  -0.079968  -0.17893  0  3.928939  0
C  C110  1  0.35520008  0.40472106  0.27855649  1  0  -0.166462  0  3.700917  0  0  -0.183621  0  3.943004  0  0  -0.190877  0  3.963776  0  -0.030443  0  -0.079982  -0.178911  0  3.928975  0
C  C111  1  0.85520152  0.59528132  0.72144409  1  0  -0.166493  0  3.700949  0  0  -0.183695  0  3.94301  0  0  -0.190955  0  3.963785  0  -0.030637  0  -0.079986  -0.178985  0  3.928981  0
C  C112  1  0.52479798  0.91409598  0.24547493  1  0  0.09801  0  3.766802  0  0  0.1136  0  3.988154  0  0  0.117376  0  4.009278  0  -0.086296  0  0.013882  0.111252  0  3.973649  0
C  C113  1  0.02479781  0.08590460  0.75452565  1  0  0.098013  0  3.766873  0  0  0.113622  0  3.988147  0  0  0.117396  0  4.009273  0  -0.086318  0  0.013893  0.111275  0  3.973643  0
C  C114  1  0.52479671  0.41409614  0.25452565  1  0  0.098073  0  3.766777  0  0  0.113637  0  3.988124  0  0  0.117414  0  4.00925  0  -0.086308  0  0.013914  0.111291  0  3.973621  0
C  C115  1  0.02479781  0.58590444  0.74547435  1  0  0.098071  0  3.766881  0  0  0.113667  0  3.988163  0  0  0.117446  0  4.009287  0  -0.086311  0  0.013927  0.111321  0  3.973658  0
C  C116  1  0.56125535  0.99020291  0.30779838  1  0  -0.151863  0  3.685563  0  0  -0.169933  0  3.926802  0  0  -0.177048  0  3.9481  0  -0.00217  0  -0.077737  -0.165367  0  3.912502  0
C  C117  1  0.06125518  0.00979588  0.69220220  1  0  -0.151894  0  3.685496  0  0  -0.169968  0  3.926729  0  0  -0.177083  0  3.94803  0  -0.00218  0  -0.077778  -0.165402  0  3.91243  0
C  C118  1  0.56125535  0.49020486  0.19220220  1  0  -0.151949  0  3.685586  0  0  -0.169994  0  3.926831  0  0  -0.17711  0  3.948132  0  -0.002168  0  -0.077775  -0.165427  0  3.912525  0
C  C119  1  0.06125645  0.50979572  0.80779780  1  0  -0.151914  0  3.68554  0  0  -0.169988  0  3.926775  0  0  -0.177105  0  3.948077  0  -0.002178  0  -0.077784  -0.165421  0  3.912475  0
C  C120  1  0.42915181  0.05097392  0.34387237  1  0  0.136089  0  3.729346  0  0  0.111163  0  3.982748  0  0  0.11709  0  4.000685  0  0.488591  0  0.05319  0.107375  0  3.970565  0
C  C121  1  0.92915325  0.94902576  0.65612820  1  0  0.136094  0  3.729339  0  0  0.11115  0  3.982756  0  0  0.117076  0  4.000692  0  0.488584  0  0.053235  0.107362  0  3.970573  0
C  C122  1  0.42915181  0.55097556  0.15612820  1  0  0.136099  0  3.729325  0  0  0.111163  0  3.98273  0  0  0.117091  0  4.000666  0  0.488626  0  0.053227  0.107392  0  3.970552  0
C  C123  1  0.92915325  0.44902592  0.84387180  1  0  0.136096  0  3.729353  0  0  0.111155  0  3.982764  0  0  0.117083  0  4.000701  0  0.48862  0  0.053247  0.107368  0  3.970581  0
N  N124  1  0.94815937  0.44535000  0.06515927  1  0  -0.575312  0  3.110684  0  0  -0.526316  0  3.392481  0  0  -0.542822  0  3.404508  0  -1.295641  0  -0.463067  -0.515036  0  3.384001  0
N  N125  1  0.44815920  0.55464968  0.93484073  1  0  -0.575336  0  3.110692  0  0  -0.526344  0  3.392491  0  0  -0.54285  0  3.404516  0  -1.295645  0  -0.463078  -0.515065  0  3.38401  0
N  N126  1  0.94815937  0.94535074  0.43484073  1  0  -0.575334  0  3.11066  0  0  -0.526344  0  3.392458  0  0  -0.54285  0  3.404484  0  -1.295661  0  -0.463084  -0.515065  0  3.383977  0
N  N127  1  0.44816047  0.05464984  0.56515927  1  0  -0.575342  0  3.110706  0  0  -0.526353  0  3.392505  0  0  -0.54286  0  3.404532  0  -1.295661  0  -0.463074  -0.515073  0  3.384024  0
N  N128  1  0.72063052  0.36268079  0.00052590  1  0  -0.575662  0  3.096091  0  0  -0.526064  0  3.369591  0  0  -0.542207  0  3.380975  0  -1.261692  0  -0.4651  -0.51501  0  3.361464  0
N  N129  1  0.22063035  0.63731890  0.99947410  1  0  -0.57562  0  3.096059  0  0  -0.526017  0  3.369551  0  0  -0.542161  0  3.380937  0  -1.26168  0  -0.465075  -0.514961  0  3.361422  0
N  N130  1  0.72063052  0.86268153  0.49947352  1  0  -0.575631  0  3.096044  0  0  -0.526026  0  3.369538  0  0  -0.54217  0  3.380923  0  -1.26168  0  -0.465106  -0.514972  0  3.361411  0
N  N131  1  0.22063162  0.13731905  0.50052590  1  0  -0.575653  0  3.09615  0  0  -0.526045  0  3.369637  0  0  -0.542189  0  3.381022  0  -1.261679  0  -0.465092  -0.514991  0  3.361511  0
N  N132  1  0.92736612  0.71172289  0.14220856  1  0  -0.400443  0  3.190038  0  0  -0.348043  0  3.460137  0  0  -0.359093  0  3.473507  0  -1.249392  0  -0.400915  -0.340624  0  3.451017  0
N  N133  1  0.42736721  0.28827589  0.85779202  1  0  -0.400441  0  3.190022  0  0  -0.348051  0  3.460131  0  0  -0.359102  0  3.473502  0  -1.249321  0  -0.400945  -0.340631  0  3.451009  0
N  N134  1  0.92736738  0.21172395  0.35779202  1  0  -0.400485  0  3.190013  0  0  -0.348088  0  3.460118  0  0  -0.359139  0  3.473487  0  -1.249412  0  -0.400947  -0.340668  0  3.450997  0
N  N135  1  0.42736721  0.78827574  0.64220798  1  0  -0.40043  0  3.190022  0  0  -0.348038  0  3.460132  0  0  -0.359089  0  3.473503  0  -1.249385  0  -0.400936  -0.340618  0  3.451011  0
N  N136  1  0.26574670  0.03992462  0.32233986  1  0  -0.391655  0  3.167916  0  0  -0.339372  0  3.435708  0  0  -0.351211  0  3.450113  0  -1.239225  0  -0.383199  -0.331441  0  3.425876  0
N  N137  1  0.76574814  0.96007417  0.67766072  1  0  -0.391661  0  3.167913  0  0  -0.339369  0  3.435693  0  0  -0.351206  0  3.450089  0  -1.239221  0  -0.383188  -0.331436  0  3.42586  0
N  N138  1  0.26574670  0.53992715  0.17766014  1  0  -0.39168  0  3.167876  0  0  -0.339384  0  3.435672  0  0  -0.351222  0  3.45007  0  -1.239296  0  -0.383222  -0.33145  0  3.42583  0
N  N139  1  0.76574814  0.46007253  0.82233870  1  0  -0.391655  0  3.167903  0  0  -0.339365  0  3.435684  0  0  -0.351202  0  3.450082  0  -1.23926  0  -0.383187  -0.331433  0  3.425851  0
