# generated using pymatgen
data_H6PbC11I2N2O
_symmetry_space_group_name_H-M   'P 1'
_cell_length_a   8.12433971
_cell_length_b   9.58461544
_cell_length_c   9.58429640
_cell_angle_alpha   112.73758677
_cell_angle_beta   94.46232397
_cell_angle_gamma   94.44817300
_symmetry_Int_Tables_number   1
_chemical_formula_structural   H6PbC11I2N2O
_chemical_formula_sum   'H12 Pb2 C22 I4 N4 O2'
_cell_volume   681.51236808
_cell_formula_units_Z   2
loop_
 _symmetry_equiv_pos_site_id
 _symmetry_equiv_pos_as_xyz
  1  'x, y, z'
loop_
 _atom_site_type_symbol
 _atom_site_label
 _atom_site_symmetry_multiplicity
 _atom_site_fract_x
 _atom_site_fract_y
 _atom_site_fract_z
 _atom_site_occupancy
 _atom_site_hle17_bader_spin_density
 _atom_site_hle17_ddec_charge
 _atom_site_hle17_ddec_spin_density
 _atom_site_hle17_ddec_sum_bond_order
 _atom_site_hle17_magmom
 _atom_site_hse06_10hf_bader_spin_density
 _atom_site_hse06_10hf_ddec_charge
 _atom_site_hse06_10hf_ddec_spin_density
 _atom_site_hse06_10hf_ddec_sum_bond_order
 _atom_site_hse06_10hf_magmom
 _atom_site_hse06_bader_spin_density
 _atom_site_hse06_ddec_charge
 _atom_site_hse06_ddec_spin_density
 _atom_site_hse06_ddec_sum_bond_order
 _atom_site_hse06_magmom
 _atom_site_pbe_bader_spin_density
 _atom_site_pbe_cm5_charge
 _atom_site_pbe_ddec_charge
 _atom_site_pbe_ddec_spin_density
 _atom_site_pbe_ddec_sum_bond_order
 _atom_site_pbe_magmom
H  H0  1  0.12618226  0.59077093  0.89652608  1  0  0.064802  0  0.978225  0  0  0.066699  0  1.058011  0  0  0.069779  0  1.055054  0  0  0.09583  0.064394  0  1.060196  0
H  H1  1  0.62613755  0.89651860  0.59067590  1  0  0.065227  0  0.977762  0  0  0.067152  0  1.057503  0  0  0.070185  0  1.05458  0  0  0.096047  0.064839  0  1.059692  0
H  H2  1  0.00356478  0.42046384  0.01184729  1  0  0.106513  0  0.957057  0  0  0.112981  0  1.022173  0  0  0.116962  0  1.020592  0  0  0.09615  0.109998  0  1.023577  0
H  H3  1  0.50353168  0.01194904  0.42038961  1  0  0.106532  0  0.956741  0  0  0.11293  0  1.021931  0  0  0.116956  0  1.020304  0  0  0.096205  0.109941  0  1.023331  0
H  H4  1  0.18063300  0.36020535  0.20493059  1  0  0.119653  0  0.956541  0  0  0.123998  0  1.025345  0  0  0.128149  0  1.020953  0  0  0.104332  0.120902  0  1.028668  0
H  H5  1  0.68060839  0.20500547  0.36015565  1  0  0.119677  0  0.956602  0  0  0.123841  0  1.025608  0  0  0.128008  0  1.021207  0  0  0.104298  0.12071  0  1.028948  0
H  H6  1  0.89891081  0.57352531  0.41748621  1  0  0.119985  0  0.958489  0  0  0.124307  0  1.027055  0  0  0.128507  0  1.022603  0  0  0.104736  0.121174  0  1.030406  0
H  H7  1  0.39885929  0.41750750  0.57366634  1  0  0.120097  0  0.958425  0  0  0.124534  0  1.026896  0  0  0.128667  0  1.022527  0  0  0.104986  0.12141  0  1.030231  0
H  H8  1  0.07526207  0.76650399  0.35673139  1  0  0.105834  0  0.956303  0  0  0.112292  0  1.021665  0  0  0.116378  0  1.01997  0  0  0.095799  0.109322  0  1.023019  0
H  H9  1  0.57516023  0.35671290  0.76671027  1  0  0.105836  0  0.956881  0  0  0.112253  0  1.02223  0  0  0.116306  0  1.02058  0  0  0.095735  0.10932  0  1.023567  0
H  H10  1  0.95188756  0.88185794  0.18668450  1  0  0.06564  0  0.978637  0  0  0.067625  0  1.058144  0  0  0.070674  0  1.055099  0  0  0.096618  0.065341  0  1.060375  0
H  H11  1  0.45184966  0.18656883  0.88189995  1  0  0.065425  0  0.978745  0  0  0.0677  0  1.057901  0  0  0.070725  0  1.054928  0  0  0.096628  0.065424  0  1.060126  0
Pb  Pb12  1  0.53866985  0.83676064  0.94027473  1  0  0.867574  0  1.82128  0  0  0.691952  0  2.26352  0  0  0.749832  0  2.23027  0  0  0.352469  0.651897  0  2.285293  0
Pb  Pb13  1  0.03855544  0.94017793  0.83663126  1  0  0.867479  0  1.821332  0  0  0.691837  0  2.263546  0  0  0.749724  0  2.230271  0  0  0.352432  0.651797  0  2.285304  0
C  C14  1  0.20165417  0.56420665  0.98036290  1  0  0.140854  0  3.686639  0  0  0.108861  0  3.944846  0  0  0.116253  0  3.963561  0  0  0.050173  0.104136  0  3.932027  0
C  C15  1  0.70160848  0.98044703  0.56419524  1  0  0.140248  0  3.685406  0  0  0.108241  0  3.943569  0  0  0.115672  0  3.962333  0  0  0.050024  0.103535  0  3.930723  0
C  C16  1  0.13360988  0.46846190  0.04510068  1  0  -0.117588  0  3.691616  0  0  -0.128567  0  3.945053  0  0  -0.137046  0  3.967097  0  0  -0.082159  -0.123081  0  3.93013  0
C  C17  1  0.63358654  0.04521280  0.46841989  1  0  -0.117587  0  3.690348  0  0  -0.128581  0  3.943803  0  0  -0.137117  0  3.96586  0  0  -0.082353  -0.123074  0  3.928836  0
C  C18  1  0.23155437  0.43376350  0.15213529  1  0  0.022654  0  3.627464  0  0  -0.006353  0  3.878816  0  0  -0.000143  0  3.893499  0  0  -0.048317  -0.009979  0  3.868584  0
C  C19  1  0.73153763  0.15225502  0.43376450  1  0  0.022668  0  3.627764  0  0  -0.006241  0  3.87887  0  0  -3.7e-05  0  3.893517  0  0  -0.048466  -0.009863  0  3.868765  0
C  C20  1  0.39583464  0.49968674  0.18879127  1  0  -0.114782  0  3.721614  0  0  -0.100894  0  3.960722  0  0  -0.111016  0  3.98273  0  0  -0.013667  -0.094459  0  3.946122  0
C  C21  1  0.89580228  0.18883813  0.49967825  1  0  -0.115318  0  3.723078  0  0  -0.1011  0  3.961701  0  0  -0.11124  0  3.983702  0  0  -0.013504  -0.094679  0  3.947103  0
C  C22  1  0.45202647  0.59771392  0.12036985  1  0  0.161538  0  3.797516  0  0  0.150385  0  4.038461  0  0  0.157916  0  4.058573  0  0  0.126331  0.145484  0  4.024697  0
C  C23  1  0.95202205  0.12037574  0.59765984  1  0  0.162011  0  3.79768  0  0  0.150787  0  4.038275  0  0  0.158366  0  4.058325  0  0  0.12636  0.14586  0  4.024558  0
C  C24  1  0.62666363  0.65724040  0.17982756  1  0  0.16098  0  3.797228  0  0  0.150729  0  4.037283  0  0  0.15832  0  4.057348  0  0  0.125943  0.145748  0  4.023577  0
C  C25  1  0.12665900  0.17983250  0.65725119  1  0  0.160524  0  3.798348  0  0  0.150515  0  4.038112  0  0  0.158076  0  4.0582  0  0  0.125937  0.145571  0  4.024387  0
C  C26  1  0.68320102  0.58902535  0.27801596  1  0  -0.113605  0  3.719259  0  0  -0.099715  0  3.957553  0  0  -0.109848  0  3.979552  0  0  -0.013257  -0.093262  0  3.942933  0
C  C27  1  0.18317330  0.27800114  0.58907164  1  0  -0.113398  0  3.719714  0  0  -0.099742  0  3.958324  0  0  -0.109866  0  3.980309  0  0  -0.013293  -0.093303  0  3.94371  0
C  C28  1  0.84756905  0.62602554  0.34381794  1  0  0.01967  0  3.631197  0  0  -0.009142  0  3.882247  0  0  -0.003043  0  3.897116  0  0  -0.049594  -0.012706  0  3.871962  0
C  C29  1  0.34752485  0.34375530  0.62609162  1  0  0.019807  0  3.631202  0  0  -0.009038  0  3.882266  0  0  -0.002866  0  3.897105  0  0  -0.049567  -0.012604  0  3.871993  0
C  C30  1  0.94512182  0.73314004  0.30892847  1  0  -0.114338  0  3.690806  0  0  -0.12558  0  3.944043  0  0  -0.134145  0  3.966082  0  0  -0.081103  -0.120097  0  3.929113  0
C  C31  1  0.44508980  0.30882085  0.73319928  1  0  -0.114716  0  3.691647  0  0  -0.126028  0  3.945086  0  0  -0.134559  0  3.967092  0  0  -0.081316  -0.120586  0  3.930155  0
C  C32  1  0.87666922  0.79774846  0.21316898  1  0  0.136953  0  3.687624  0  0  0.104969  0  3.945917  0  0  0.112436  0  3.964715  0  0  0.048523  0.100215  0  3.933033  0
C  C33  1  0.37667460  0.21306302  0.79777487  1  0  0.137343  0  3.687232  0  0  0.105249  0  3.945511  0  0  0.112708  0  3.964278  0  0  0.048732  0.100479  0  3.932672  0
C  C34  1  0.53952608  0.48711848  0.29078728  1  0  0.412436  0  3.72974  0  0  0.38443  0  4.004209  0  0  0.407324  0  4.00628  0  0  0.16769  0.368654  0  4.003284  0
C  C35  1  0.03949628  0.29077272  0.48713551  1  0  0.412762  0  3.728917  0  0  0.384493  0  4.003677  0  0  0.407385  0  4.005759  0  0  0.167693  0.368739  0  4.00273  0
I  I36  1  0.27878500  0.03189087  0.15104294  1  0  -0.481062  0  1.006714  0  0  -0.412807  0  1.306772  0  0  -0.438449  0  1.290193  0  0  -0.177509  -0.394368  0  1.317766  0
I  I37  1  0.77889787  0.15126168  0.03192111  1  0  -0.48123  0  1.006122  0  0  -0.413084  0  1.306231  0  0  -0.438733  0  1.289669  0  0  -0.177645  -0.394629  0  1.317212  0
I  I38  1  0.79986202  0.62565952  0.74588526  1  0  -0.481755  0  1.005486  0  0  -0.413635  0  1.305619  0  0  -0.439319  0  1.289157  0  0  -0.178138  -0.395169  0  1.31655  0
I  I39  1  0.29998562  0.74587681  0.62574195  1  0  -0.481799  0  1.005712  0  0  -0.413589  0  1.305737  0  0  -0.439265  0  1.289238  0  0  -0.178149  -0.395131  0  1.316662  0
N  N40  1  0.36112400  0.62998140  0.01754078  1  0  -0.338449  0  3.191712  0  0  -0.269202  0  3.440285  0  0  -0.289262  0  3.461815  0  0  -0.295876  -0.255581  0  3.425461  0
N  N41  1  0.86115808  0.01754973  0.62992341  1  0  -0.338238  0  3.191426  0  0  -0.268904  0  3.439839  0  0  -0.288975  0  3.461343  0  0  -0.295621  -0.255286  0  3.425023  0
N  N42  1  0.71713312  0.76021933  0.14746893  1  0  -0.336353  0  3.189435  0  0  -0.267526  0  3.4377  0  0  -0.287563  0  3.459167  0  0  -0.29487  -0.253913  0  3.42291  0
N  N43  1  0.21712428  0.14741426  0.76019199  1  0  -0.336227  0  3.189532  0  0  -0.267569  0  3.437871  0  0  -0.287597  0  3.459348  0  0  -0.295067  -0.253965  0  3.423091  0
O  O44  1  0.53941655  0.41054454  0.36744094  1  0  -0.407026  0  1.974916  0  0  -0.36567  0  2.192087  0  0  -0.382548  0  2.187741  0  0  -0.230068  -0.354514  0  2.195366  0
O  O45  1  0.03938519  0.36749196  0.41059761  1  0  -0.407254  0  1.973888  0  0  -0.365794  0  2.191174  0  0  -0.382671  0  2.186809  0  0  -0.230134  -0.354641  0  2.194452  0
