# generated using pymatgen
data_MnH20C18S2(N2O3)2
_symmetry_space_group_name_H-M   'P 1'
_cell_length_a   5.32700439
_cell_length_b   10.21978621
_cell_length_c   10.50149777
_cell_angle_alpha   107.04743992
_cell_angle_beta   99.88608242
_cell_angle_gamma   103.10821294
_symmetry_Int_Tables_number   1
_chemical_formula_structural   MnH20C18S2(N2O3)2
_chemical_formula_sum   'Mn1 H20 C18 S2 N4 O6'
_cell_volume   514.63894294
_cell_formula_units_Z   1
loop_
 _symmetry_equiv_pos_site_id
 _symmetry_equiv_pos_as_xyz
  1  'x, y, z'
loop_
 _atom_site_type_symbol
 _atom_site_label
 _atom_site_symmetry_multiplicity
 _atom_site_fract_x
 _atom_site_fract_y
 _atom_site_fract_z
 _atom_site_occupancy
 _atom_site_pbe_cm5_charge
 _atom_site_pbe_ddec_charge
 _atom_site_pbe_ddec_spin_density
 _atom_site_pbe_ddec_sum_bond_order
 _atom_site_pbe_magmom
Mn  Mn0  1  0.49999865  0.49999613  0.00000146  1  0.634339  1.079712  -4.577074  2.400305  -4.374
H  H1  1  0.36608251  0.86375063  0.27527037  1  0.111726  0.125518  0.000189  1.023748  0.0
H  H2  1  0.63391614  0.13625316  0.72472855  1  0.111726  0.125519  0.000189  1.02376  0.0
H  H3  1  0.24938038  0.08790271  0.38373005  1  0.115382  0.095263  -0.000657  1.047857  0.0
H  H4  1  0.75061769  0.91210000  0.61626944  1  0.115369  0.095258  -0.000657  1.04786  0.0
H  H5  1  0.71751775  0.31400617  0.19461190  1  0.133914  0.117575  0.000204  1.022084  0.0
H  H6  1  0.28248853  0.68599758  0.80538857  1  0.13393  0.117587  0.000204  1.022108  0.0
H  H7  1  0.87142187  0.10007506  0.08628378  1  0.117504  0.142911  -0.000238  1.017369  0.0
H  H8  1  0.12857751  0.89992655  0.91371645  1  0.117514  0.142942  -0.000238  1.017371  0.0
H  H9  1  0.18189830  0.28651817  0.35594919  1  0.099685  0.072872  -0.000293  1.049299  0.0
H  H10  1  0.81810493  0.71348338  0.64405419  1  0.099677  0.072827  -0.000294  1.049348  0.0
H  H11  1  0.35853127  0.37752827  0.26224006  1  0.116211  0.114508  0.000267  1.018736  0.0
H  H12  1  0.64146745  0.62247547  0.73776266  1  0.116212  0.114506  0.000266  1.018711  0.0
H  H13  1  0.76072192  0.47809902  0.46620748  1  0.089826  0.085939  -1.9e-05  1.004953  0.0
H  H14  1  0.23928129  0.52190255  0.53379495  1  0.089824  0.085959  -1.9e-05  1.004909  0.0
H  H15  1  0.57732560  0.38771439  0.55733309  1  0.09231  0.094165  1.9e-05  0.997808  0.0
H  H16  1  0.42267762  0.61228718  0.44266934  1  0.092318  0.094191  1.9e-05  0.997771  0.0
H  H17  1  0.89582074  0.67544474  0.96645488  1  0.291664  0.374216  -0.000927  0.973509  -0.001
H  H18  1  0.10417440  0.32455254  0.03354751  1  0.291628  0.374169  -0.000928  0.973565  -0.001
H  H19  1  0.96252889  0.52836435  0.88552793  1  0.295172  0.381127  -0.001312  0.958128  -0.003
H  H20  1  0.03747195  0.47163291  0.11447492  1  0.295182  0.381136  -0.00131  0.958129  -0.003
C  C21  1  0.68099541  0.82940237  0.09320719  1  0.213657  0.558901  -0.011718  4.226544  -0.009
C  C22  1  0.31900280  0.17059707  0.90679420  1  0.213709  0.558993  -0.011722  4.226516  -0.009
C  C23  1  0.62783884  0.96491775  0.17201613  1  0.015433  0.021566  -0.008227  3.913525  -0.006
C  C24  1  0.37216182  0.03508280  0.82798293  1  0.01542  0.021575  -0.008235  3.913434  -0.006
C  C25  1  0.45426478  0.96171468  0.25760787  1  -0.063096  -0.109115  -0.002356  3.938758  -0.001
C  C26  1  0.54573962  0.03828591  0.74238770  1  -0.063085  -0.109089  -0.002355  3.938669  -0.001
C  C27  1  0.38459153  0.08336033  0.31665669  1  0.064453  0.045266  -0.008639  3.842937  -0.006
C  C28  1  0.61540722  0.91664024  0.68334127  1  0.064424  0.045222  -0.008643  3.843031  -0.006
C  C29  1  0.65342659  0.21203133  0.21052046  1  0.06426  0.046428  -0.000579  3.813542  0.0
C  C30  1  0.34658036  0.78797028  0.78947848  1  0.064262  0.046506  -0.000582  3.813676  0.0
C  C31  1  0.73475163  0.09395843  0.15220950  1  -0.073014  -0.14147  -0.005598  3.919328  -0.004
C  C32  1  0.26525154  0.90604318  0.84779008  1  -0.073024  -0.141565  -0.0056  3.919392  -0.004
C  C33  1  0.38001411  0.32875560  0.34227733  1  -0.060701  -0.093246  -0.000631  3.849918  0.0
C  C34  1  0.61999348  0.67124705  0.65772388  1  -0.060658  -0.093159  -0.00063  3.849863  0.0
C  C35  1  0.55921314  0.43793726  0.47808576  1  -0.16207  -0.157608  -0.000671  3.922942  -0.001
C  C36  1  0.44078877  0.56206539  0.52191689  1  -0.16207  -0.157614  -0.000671  3.922838  -0.001
C  C37  1  0.11477768  0.34567992  0.70615847  1  0.156756  0.295967  -0.033133  4.28539  -0.032
C  C38  1  0.88522526  0.65433444  0.29385444  1  0.156614  0.295718  -0.033182  4.285042  -0.032
S  S39  1  0.99831562  0.20159299  0.57242636  1  -0.153136  -0.319406  -0.021885  2.322214  -0.014
S  S40  1  0.00167676  0.79840345  0.42756032  1  -0.152964  -0.319033  -0.02193  2.323137  -0.014
N  N41  1  0.20016073  0.45138447  0.80684495  1  -0.400892  -0.557616  -0.019452  3.178729  0.003
N  N42  1  0.79981942  0.54859700  0.19313625  1  -0.400871  -0.557709  -0.019423  3.177528  0.003
N  N43  1  0.47746555  0.20435745  0.28920947  1  -0.206888  0.106572  -0.00896  3.724763  -0.009
N  N44  1  0.52253706  0.79564305  0.71079260  1  -0.206878  0.106492  -0.008965  3.724943  -0.009
O  O45  1  0.49341850  0.71480353  0.06776616  1  -0.307326  -0.548298  -0.033525  2.294932  -0.016
O  O46  1  0.50658745  0.28519576  0.93224438  1  -0.307394  -0.54838  -0.033528  2.294942  -0.016
O  O47  1  0.89404785  0.83961949  0.05440128  1  -0.301644  -0.530348  -0.008998  2.192704  -0.01
O  O48  1  0.10594068  0.16038014  0.94558891  1  -0.301592  -0.5303  -0.009  2.19271  -0.01
O  O49  1  0.81910662  0.57100224  0.90836569  1  -0.566383  -0.76158  -0.044273  2.167097  -0.028
O  O50  1  0.18089237  0.42899499  0.09163986  1  -0.566415  -0.761566  -0.044276  2.167036  -0.028
