# generated using pymatgen
data_ZnH4C7SO2
_symmetry_space_group_name_H-M   'P 1'
_cell_length_a   7.01789616
_cell_length_b   7.53379032
_cell_length_c   14.07501567
_cell_angle_alpha   105.56829423
_cell_angle_beta   91.22156462
_cell_angle_gamma   89.98177718
_symmetry_Int_Tables_number   1
_chemical_formula_structural   ZnH4C7SO2
_chemical_formula_sum   'Zn4 H16 C28 S4 O8'
_cell_volume   716.68848800
_cell_formula_units_Z   4
loop_
 _symmetry_equiv_pos_site_id
 _symmetry_equiv_pos_as_xyz
  1  'x, y, z'
loop_
 _atom_site_type_symbol
 _atom_site_label
 _atom_site_symmetry_multiplicity
 _atom_site_fract_x
 _atom_site_fract_y
 _atom_site_fract_z
 _atom_site_occupancy
 _atom_site_hle17_bader_spin_density
 _atom_site_hle17_ddec_charge
 _atom_site_hle17_ddec_spin_density
 _atom_site_hle17_ddec_sum_bond_order
 _atom_site_hle17_magmom
 _atom_site_hse06_10hf_bader_spin_density
 _atom_site_hse06_10hf_ddec_charge
 _atom_site_hse06_10hf_ddec_spin_density
 _atom_site_hse06_10hf_ddec_sum_bond_order
 _atom_site_hse06_10hf_magmom
 _atom_site_hse06_bader_spin_density
 _atom_site_hse06_ddec_charge
 _atom_site_hse06_ddec_spin_density
 _atom_site_hse06_ddec_sum_bond_order
 _atom_site_hse06_magmom
 _atom_site_pbe_bader_spin_density
 _atom_site_pbe_cm5_charge
 _atom_site_pbe_ddec_charge
 _atom_site_pbe_ddec_spin_density
 _atom_site_pbe_ddec_sum_bond_order
 _atom_site_pbe_magmom
Zn  Zn0  1  0.85697246  0.31602558  0.56362733  1  0  0.901841  0  1.967099  0  0  0.744658  0  2.430195  0  0  0.787503  0  2.382704  0  0  0.565045  0.714478  0  2.463607  0
Zn  Zn1  1  0.35691641  0.24732370  0.56357861  1  0  0.901946  0  1.965404  0  0  0.744508  0  2.428564  0  0  0.787445  0  2.381067  0  0  0.564681  0.714314  0  2.461979  0
Zn  Zn2  1  0.14302879  0.68397251  0.43637321  1  0  0.901808  0  1.967134  0  0  0.744634  0  2.430231  0  0  0.787478  0  2.382736  0  0  0.565026  0.714455  0  2.463641  0
Zn  Zn3  1  0.64308343  0.75267302  0.43642100  1  0  0.901967  0  1.9654  0  0  0.744494  0  2.428612  0  0  0.787433  0  2.381115  0  0  0.564674  0.714297  0  2.462026  0
H  H4  1  0.07178328  0.48057613  0.86825945  1  0  0.094511  0  0.947974  0  0  0.107021  0  1.006344  0  0  0.109927  0  1.005413  0  0  0.097191  0.104934  0  1.007097  0
H  H5  1  0.57135430  0.38832895  0.86822467  1  0  0.094445  0  0.949634  0  0  0.106919  0  1.007943  0  0  0.109833  0  1.007017  0  0  0.097078  0.104841  0  1.008673  0
H  H6  1  0.92821658  0.51942335  0.13174055  1  0  0.094549  0  0.947981  0  0  0.107061  0  1.00634  0  0  0.109966  0  1.005408  0  0  0.0972  0.104973  0  1.007094  0
H  H7  1  0.42864558  0.61167190  0.13177554  1  0  0.094466  0  0.949666  0  0  0.10694  0  1.007977  0  0  0.109854  0  1.00705  0  0  0.097087  0.10486  0  1.008705  0
H  H8  1  0.05289133  0.29456749  0.98922602  1  0  0.080291  0  0.961635  0  0  0.093645  0  1.020149  0  0  0.096081  0  1.018918  0  0  0.098261  0.091841  0  1.02108  0
H  H9  1  0.55264445  0.69565878  0.98917006  1  0  0.080565  0  0.962411  0  0  0.093818  0  1.020889  0  0  0.096267  0  1.019642  0  0  0.098238  0.092028  0  1.021792  0
H  H10  1  0.94710997  0.70543335  0.01077421  1  0  0.080272  0  0.961639  0  0  0.093647  0  1.020136  0  0  0.096084  0  1.018905  0  0  0.098254  0.091843  0  1.02107  0
H  H11  1  0.44735401  0.30434346  0.01083031  1  0  0.080543  0  0.962428  0  0  0.093798  0  1.02091  0  0  0.096246  0  1.019662  0  0  0.098231  0.092019  0  1.021802  0
H  H12  1  0.07984043  0.95079506  0.93115996  1  0  0.082935  0  0.966483  0  0  0.095179  0  1.026835  0  0  0.097631  0  1.026346  0  0  0.098078  0.093441  0  1.027257  0
H  H13  1  0.57986248  0.98119489  0.93113776  1  0  0.082641  0  0.966484  0  0  0.094559  0  1.027364  0  0  0.09699  0  1.026909  0  0  0.097881  0.09283  0  1.02777  0
H  H14  1  0.92016230  0.04920578  0.06884029  1  0  0.082989  0  0.966415  0  0  0.095195  0  1.026805  0  0  0.097645  0  1.026317  0  0  0.098098  0.093457  0  1.027228  0
H  H15  1  0.42013315  0.01880598  0.06886166  1  0  0.082626  0  0.966481  0  0  0.094539  0  1.027364  0  0  0.096967  0  1.02691  0  0  0.097885  0.09281  0  1.027772  0
H  H16  1  0.11290417  0.80017128  0.75209542  1  0  0.100392  0  0.968694  0  0  0.105963  0  1.038011  0  0  0.109258  0  1.036423  0  0  0.097842  0.103528  0  1.039285  0
H  H17  1  0.61306656  0.95227930  0.75208668  1  0  0.100319  0  0.968532  0  0  0.10576  0  1.03822  0  0  0.109005  0  1.036647  0  0  0.097837  0.103355  0  1.039465  0
H  H18  1  0.88709853  0.19982956  0.24790554  1  0  0.100336  0  0.968743  0  0  0.10593  0  1.038028  0  0  0.109226  0  1.036437  0  0  0.097813  0.103496  0  1.039301  0
H  H19  1  0.38692904  0.04772158  0.24791345  1  0  0.100313  0  0.968561  0  0  0.105758  0  1.038248  0  0  0.109003  0  1.036676  0  0  0.097844  0.103353  0  1.039492  0
C  C20  1  0.11533637  0.05310153  0.70965626  1  0  -0.127975  0  3.722725  0  0  -0.107374  0  3.954899  0  0  -0.117898  0  3.978424  0  0  -0.020999  -0.100603  0  3.939522  0
C  C21  1  0.61536412  0.65674140  0.70962141  1  0  -0.127605  0  3.720703  0  0  -0.106626  0  3.952561  0  0  -0.117126  0  3.976071  0  0  -0.02116  -0.099881  0  3.937177  0
C  C22  1  0.88466493  0.94689931  0.29034397  1  0  -0.127994  0  3.722724  0  0  -0.107391  0  3.954918  0  0  -0.117917  0  3.978441  0  0  -0.021005  -0.100621  0  3.93954  0
C  C23  1  0.38463575  0.34325945  0.29037879  1  0  -0.127612  0  3.720717  0  0  -0.106633  0  3.952569  0  0  -0.117132  0  3.976079  0  0  -0.021181  -0.099888  0  3.937183  0
C  C24  1  0.10637901  0.24817620  0.74263848  1  0  0.094891  0  3.741371  0  0  0.10456  0  3.990029  0  0  0.108935  0  4.015491  0  0  -0.007334  0.101159  0  3.974168  0
C  C25  1  0.60623885  0.49473677  0.74260910  1  0  0.09413  0  3.742222  0  0  0.104765  0  3.989465  0  0  0.1091  0  4.015012  0  0  -0.00692  0.101404  0  3.973542  0
C  C26  1  0.89362232  0.75182465  0.25736104  1  0  0.094903  0  3.741426  0  0  0.104553  0  3.990103  0  0  0.108933  0  4.015558  0  0  -0.007349  0.101151  0  3.97424  0
C  C27  1  0.39376102  0.50526271  0.25739091  1  0  0.094107  0  3.742241  0  0  0.104737  0  3.989491  0  0  0.109071  0  4.01504  0  0  -0.006939  0.101379  0  3.973565  0
C  C28  1  0.08162928  0.33084880  0.84359720  1  0  -0.115304  0  3.743518  0  0  -0.133328  0  3.993525  0  0  -0.138429  0  4.015825  0  0  -0.098008  -0.129853  0  3.978499  0
C  C29  1  0.58128361  0.51330462  0.84355028  1  0  -0.115211  0  3.746175  0  0  -0.133586  0  3.995873  0  0  -0.138686  0  4.018191  0  0  -0.09818  -0.13012  0  3.980837  0
C  C30  1  0.91836775  0.66915069  0.15640204  1  0  -0.11531  0  3.743639  0  0  -0.133329  0  3.993654  0  0  -0.138432  0  4.015952  0  0  -0.09797  -0.129854  0  3.978628  0
C  C31  1  0.41871628  0.48669761  0.15645012  1  0  -0.115219  0  3.746172  0  0  -0.133589  0  3.995871  0  0  -0.138692  0  4.01819  0  0  -0.098162  -0.130126  0  3.980838  0
C  C32  1  0.07047797  0.22594507  0.91116765  1  0  -0.057418  0  3.791909  0  0  -0.071692  0  4.040497  0  0  -0.071227  0  4.061317  0  0  -0.090044  -0.071615  0  4.025908  0
C  C33  1  0.57029065  0.68601504  0.91110659  1  0  -0.057857  0  3.792484  0  0  -0.07211  0  4.040885  0  0  -0.071634  0  4.061716  0  0  -0.089414  -0.072048  0  4.026279  0
C  C34  1  0.92952335  0.77405715  0.08883278  1  0  -0.057463  0  3.791976  0  0  -0.071754  0  4.040561  0  0  -0.071289  0  4.061382  0  0  -0.090071  -0.071678  0  4.025974  0
C  C35  1  0.42970922  0.31398306  0.08889251  1  0  -0.057862  0  3.792551  0  0  -0.072131  0  4.040959  0  0  -0.071654  0  4.061789  0  0  -0.089436  -0.072078  0  4.026353  0
C  C36  1  0.08469530  0.03436512  0.87894824  1  0  -0.08871  0  3.792084  0  0  -0.102392  0  4.043393  0  0  -0.106645  0  4.065822  0  0  -0.097209  -0.099556  0  4.02793  0
C  C37  1  0.58465295  0.84527658  0.87890697  1  0  -0.087228  0  3.790032  0  0  -0.100405  0  4.040891  0  0  -0.104664  0  4.063319  0  0  -0.096974  -0.097566  0  4.02542  0
C  C38  1  0.91530600  0.96563572  0.12105199  1  0  -0.088686  0  3.791962  0  0  -0.102342  0  4.043278  0  0  -0.106596  0  4.065711  0  0  -0.09719  -0.099508  0  4.027816  0
C  C39  1  0.41534552  0.15472428  0.12109250  1  0  -0.0871  0  3.790104  0  0  -0.100251  0  4.040938  0  0  -0.104505  0  4.063361  0  0  -0.09691  -0.097413  0  4.025471  0
C  C40  1  0.10458346  0.94970243  0.77902709  1  0  -0.037234  0  3.717302  0  0  -0.060297  0  3.962164  0  0  -0.05888  0  3.982339  0  0  -0.077453  -0.060943  0  3.948412  0
C  C41  1  0.60458616  0.82973810  0.77899445  1  0  -0.038173  0  3.71672  0  0  -0.061502  0  3.961785  0  0  -0.06004  0  3.982016  0  0  -0.078092  -0.06215  0  3.947996  0
C  C42  1  0.89541499  0.05029843  0.22097309  1  0  -0.037207  0  3.717276  0  0  -0.060279  0  3.962114  0  0  -0.058862  0  3.982288  0  0  -0.077443  -0.060925  0  3.948361  0
C  C43  1  0.39541226  0.17026000  0.22100533  1  0  -0.038252  0  3.71678  0  0  -0.061605  0  3.961863  0  0  -0.060145  0  3.982093  0  0  -0.078136  -0.062253  0  3.948072  0
C  C44  1  0.13431005  0.94429889  0.60488941  1  0  0.661932  0  3.842867  0  0  0.606718  0  4.130373  0  0  0.643249  0  4.121719  0  0  0.213431  0.581957  0  4.13537  0
C  C45  1  0.63458946  0.66040719  0.60484071  1  0  0.663608  0  3.839925  0  0  0.607392  0  4.128623  0  0  0.643981  0  4.119971  0  0  0.214123  0.582635  0  4.133606  0
C  C46  1  0.86568980  0.05569920  0.39511039  1  0  0.661963  0  3.842803  0  0  0.606736  0  4.130326  0  0  0.64327  0  4.121671  0  0  0.213457  0.581975  0  4.135322  0
C  C47  1  0.36541185  0.33959228  0.39515861  1  0  0.663514  0  3.840084  0  0  0.607331  0  4.128747  0  0  0.643918  0  4.120099  0  0  0.214122  0.582577  0  4.133727  0
S  S48  1  0.12105709  0.40511546  0.66804042  1  0  -0.39861  0  2.378064  0  0  -0.350267  0  2.79245  0  0  -0.369178  0  2.778825  0  0  -0.163959  -0.336879  0  2.803745  0
S  S49  1  0.62102781  0.26297759  0.66802898  1  0  -0.398876  0  2.378463  0  0  -0.350698  0  2.792173  0  0  -0.369581  0  2.778512  0  0  -0.164303  -0.337348  0  2.803465  0
S  S50  1  0.87894278  0.59488539  0.33195979  1  0  -0.39861  0  2.378072  0  0  -0.350247  0  2.792447  0  0  -0.36916  0  2.778817  0  0  -0.163958  -0.336863  0  2.803739  0
S  S51  1  0.37897348  0.73702188  0.33197105  1  0  -0.398856  0  2.378458  0  0  -0.350672  0  2.792167  0  0  -0.369554  0  2.778505  0  0  -0.164299  -0.337322  0  2.803456  0
O  O52  1  0.21145005  0.00935759  0.53957626  1  0  -0.627634  0  2.154301  0  0  -0.5475  0  2.433017  0  0  -0.576767  0  2.418032  0  0  -0.314591  -0.526919  0  2.442407  0
O  O53  1  0.71122836  0.52960603  0.53948680  1  0  -0.62799  0  2.154522  0  0  -0.547826  0  2.434135  0  0  -0.577043  0  2.419083  0  0  -0.314922  -0.527277  0  2.443549  0
O  O54  1  0.78855121  0.99063913  0.46042338  1  0  -0.6277  0  2.154345  0  0  -0.547544  0  2.433034  0  0  -0.57681  0  2.418043  0  0  -0.314633  -0.526965  0  2.442425  0
O  O55  1  0.28877292  0.47039206  0.46051303  1  0  -0.627928  0  2.154575  0  0  -0.547774  0  2.434152  0  0  -0.576992  0  2.4191  0  0  -0.314899  -0.527226  0  2.443566  0
O  O56  1  0.07213977  0.77880379  0.57974900  1  0  -0.56387  0  2.028127  0  0  -0.484727  0  2.275867  0  0  -0.513363  0  2.265386  0  0  -0.299894  -0.46483  0  2.282373  0
O  O57  1  0.57291729  0.80100903  0.57977608  1  0  -0.564752  0  2.026855  0  0  -0.485136  0  2.275301  0  0  -0.514045  0  2.265019  0  0  -0.300205  -0.465148  0  2.281665  0
O  O58  1  0.92786149  0.22119568  0.42025175  1  0  -0.563869  0  2.02808  0  0  -0.484709  0  2.275809  0  0  -0.513357  0  2.265337  0  0  -0.29991  -0.464812  0  2.282316  0
O  O59  1  0.42708114  0.19898907  0.42022370  1  0  -0.564689  0  2.026908  0  0  -0.485103  0  2.275376  0  0  -0.514  0  2.265079  0  0  -0.300227  -0.46512  0  2.28174  0
