# generated using pymatgen
data_CuH10C8(NO2)2
_symmetry_space_group_name_H-M   'P 1'
_cell_length_a   4.84347835
_cell_length_b   12.74699429
_cell_length_c   16.26507107
_cell_angle_alpha   89.99545730
_cell_angle_beta   90.00198556
_cell_angle_gamma   95.72599985
_symmetry_Int_Tables_number   1
_chemical_formula_structural   CuH10C8(NO2)2
_chemical_formula_sum   'Cu4 H40 C32 N8 O16'
_cell_volume   999.19151441
_cell_formula_units_Z   4
loop_
 _symmetry_equiv_pos_site_id
 _symmetry_equiv_pos_as_xyz
  1  'x, y, z'
loop_
 _atom_site_type_symbol
 _atom_site_label
 _atom_site_symmetry_multiplicity
 _atom_site_fract_x
 _atom_site_fract_y
 _atom_site_fract_z
 _atom_site_occupancy
 _atom_site_hle17_ddec_charge
 _atom_site_hle17_ddec_spin_density
 _atom_site_hle17_ddec_sum_bond_order
 _atom_site_hle17_magmom
 _atom_site_hse06_10hf_ddec_charge
 _atom_site_hse06_10hf_ddec_spin_density
 _atom_site_hse06_10hf_ddec_sum_bond_order
 _atom_site_hse06_10hf_magmom
 _atom_site_hse06_ddec_charge
 _atom_site_hse06_ddec_spin_density
 _atom_site_hse06_ddec_sum_bond_order
 _atom_site_hse06_magmom
 _atom_site_pbe_cm5_charge
 _atom_site_pbe_ddec_charge
 _atom_site_pbe_ddec_spin_density
 _atom_site_pbe_ddec_sum_bond_order
 _atom_site_pbe_magmom
Cu  Cu0  1  0.47051823  0.67218921  0.77260466  1  0.855136  0.708582  1.804562  0.509  0.836839  0.792575  2.195469  0.622  0.925439  0.859957  2.126297  0.705  0.722919  0.783189  0.744654  2.242771  0.569
Cu  Cu1  1  0.02948204  0.82775555  0.27259237  1  0.85495  0.70784  1.804857  0.509  0.836336  0.792123  2.195914  0.622  0.925296  0.859829  2.126397  0.705  0.722662  0.782552  0.742848  2.243336  0.568
Cu  Cu2  1  0.52948484  0.32774061  0.22739271  1  0.854699  -0.773604  1.804929  -0.508  0.836132  -0.847505  2.195915  -0.622  0.92499  -0.932742  2.126664  -0.704  0.722597  0.78242  -0.784182  2.243217  -0.567
Cu  Cu3  1  0.97050531  0.17221608  0.72739884  1  0.854802  0.7084  1.804638  0.509  0.836493  0.792492  2.19559  0.622  0.925183  0.859947  2.126366  0.705  0.722766  0.782819  0.74433  2.242858  0.569
H  H4  1  0.35717842  0.55233966  0.98833265  1  0.079191  0.004501  0.938361  0.006  0.095196  0.002868  0.997779  0.004  0.095709  0.001975  0.997133  0.003  0.107417  0.094645  0.003527  0.998396  0.005
H  H5  1  0.14282338  0.94771728  0.48827227  1  0.079324  0.004627  0.938362  0.006  0.095169  0.003009  0.997782  0.004  0.095685  0.002081  0.997179  0.003  0.107446  0.094659  0.003687  0.998347  0.005
H  H6  1  0.64288991  0.44769579  0.01169361  1  0.079367  -0.004861  0.938431  -0.006  0.095225  -0.003024  0.997966  -0.004  0.095721  -0.002122  0.997342  -0.003  0.107472  0.094709  -0.003642  0.998549  -0.005
H  H7  1  0.85727735  0.05231579  0.51169435  1  0.079229  0.004606  0.938244  0.006  0.095209  0.002965  0.997615  0.004  0.095733  0.00206  0.996983  0.003  0.107377  0.094655  0.003623  0.998226  0.005
H  H8  1  0.13672786  0.63376631  0.93867350  1  0.089175  0.000194  0.912291  0.001  0.106958  0.00013  0.971061  0.0  0.106305  3.2e-05  0.972613  0.0  0.114573  0.107198  0.000228  0.97027  0.001
H  H9  1  0.36325845  0.86629313  0.43861429  1  0.089221  0.000182  0.91248  0.001  0.106982  0.000125  0.971133  0.0  0.106355  2.6e-05  0.972691  0.0  0.114451  0.107227  0.00022  0.970353  0.001
H  H10  1  0.86327568  0.36627390  0.06139026  1  0.089284  -0.000235  0.912524  -0.001  0.107144  -0.000162  0.971143  0.0  0.106498  -5.4e-05  0.972688  0.0  0.114534  0.107384  -0.000261  0.970362  -0.001
H  H11  1  0.63676846  0.13375733  0.56129699  1  0.089383  0.000194  0.912138  0.001  0.107035  0.000125  0.970981  0.0  0.106394  2.5e-05  0.972547  0.0  0.114594  0.107276  0.000224  0.970179  0.001
H  H12  1  0.64705184  0.68921912  0.07375041  1  0.121982  0.000552  0.957614  0.001  0.128797  0.000491  1.022337  0.001  0.132861  0.000323  1.020456  0.0  0.110032  0.125681  0.000641  1.024066  0.001
H  H13  1  0.85283811  0.81087540  0.57372829  1  0.122283  0.000727  0.957328  0.001  0.128879  0.000783  1.022306  0.001  0.132974  0.000554  1.020339  0.0  0.109909  0.125769  0.00098  1.024041  0.001
H  H14  1  0.35284297  0.31088581  0.92625862  1  0.122295  -0.000424  0.957451  -0.001  0.128913  -0.000321  1.022399  -0.001  0.133018  -0.00023  1.020412  0.0  0.109971  0.125791  -0.000382  1.024168  -0.001
H  H15  1  0.14708267  0.18921847  0.42624755  1  0.121999  0.000564  0.957532  0.001  0.12876  0.000584  1.022333  0.001  0.132847  0.000436  1.020387  0.0  0.110032  0.125632  0.000697  1.024077  0.001
H  H16  1  0.98962351  0.84928048  0.07237616  1  0.108167  0.000135  0.976588  0.0  0.115962  1e-06  1.040143  0.0  0.119311  -4.5e-05  1.037712  0.0  0.106725  0.113255  5.6e-05  1.04225  0.0
H  H17  1  0.51037930  0.65078101  0.57239798  1  0.108288  0.000149  0.976348  0.0  0.116059  7e-06  1.039969  0.0  0.119346  -4.1e-05  1.037646  0.0  0.106736  0.11343  6.2e-05  1.041993  0.0
H  H18  1  0.01033209  0.15079683  0.92759537  1  0.108358  -0.000255  0.97618  0.0  0.116061  3.2e-05  1.03988  0.0  0.11935  1.3e-05  1.037551  0.0  0.106689  0.113397  4.7e-05  1.041943  0.0
H  H19  1  0.48966748  0.34928205  0.42761229  1  0.108105  0.000208  0.97646  0.0  0.116004  -5.4e-05  1.03996  0.0  0.119311  -3e-05  1.037583  0.0  0.106697  0.113321  -7e-05  1.042039  0.0
H  H20  1  0.08172348  0.94661994  0.93851964  1  0.099988  0.000652  0.962836  0.0  0.10954  0.000728  1.025138  0.001  0.112398  0.000514  1.024423  0.0  0.104674  0.10734  0.000912  1.025958  0.001
H  H21  1  0.41846955  0.55336292  0.43857757  1  0.099982  0.000275  0.962859  0.0  0.109727  0.000279  1.024957  0.0  0.112603  0.000228  1.02422  0.0  0.104766  0.107516  0.000309  1.025793  0.001
H  H22  1  0.91838496  0.05338001  0.06142608  1  0.100089  -0.000334  0.962788  0.0  0.109703  -0.000324  1.025043  0.0  0.112581  -0.000266  1.024301  0.0  0.10467  0.107497  -0.000352  1.025881  -0.001
H  H23  1  0.58179051  0.44660935  0.56146406  1  0.099951  0.000647  0.962971  0.0  0.109545  0.000725  1.025214  0.001  0.112405  0.00051  1.024499  0.0  0.104622  0.10734  0.000909  1.026036  0.001
H  H24  1  0.83446077  0.87597798  0.81148228  1  0.094136  0.001255  0.941084  0.002  0.101152  0.001072  1.004764  0.002  0.103592  0.000754  1.002455  0.001  0.121048  0.099043  0.001337  1.006772  0.002
H  H25  1  0.66583626  0.62391964  0.31154492  1  0.094382  0.001243  0.940934  0.002  0.101236  0.001021  1.004768  0.002  0.103686  0.00074  1.002446  0.001  0.121039  0.099115  0.001246  1.006798  0.002
H  H26  1  0.16574391  0.12393361  0.18845913  1  0.094346  -0.001368  0.940927  -0.002  0.101236  -0.001101  1.004729  -0.002  0.103683  -0.00081  1.002408  -0.001  0.121055  0.099118  -0.001322  1.006749  -0.002
H  H27  1  0.33451654  0.37596663  0.68850040  1  0.094098  0.001257  0.941216  0.002  0.101132  0.001076  1.004856  0.002  0.103573  0.000757  1.002545  0.001  0.121098  0.099044  0.00134  1.006859  0.002
H  H28  1  0.89599864  0.53545309  0.64445425  1  0.004817  0.006213  0.918099  0.008  0.017145  0.004017  0.982188  0.005  0.016218  0.002659  0.977586  0.003  0.105331  0.017884  0.005145  0.985394  0.006
H  H29  1  0.60400900  0.96452486  0.14448035  1  0.005  0.006204  0.917896  0.007  0.017346  0.003981  0.981968  0.005  0.016418  0.00264  0.977366  0.003  0.105411  0.018092  0.00508  0.985183  0.006
H  H30  1  0.10400518  0.46455716  0.35547302  1  0.004816  -0.006782  0.918069  -0.007  0.017206  -0.004267  0.98211  -0.005  0.016282  -0.002875  0.977495  -0.003  0.10534  0.017959  -0.005368  0.98531  -0.006
H  H31  1  0.39602248  0.03543412  0.85553977  1  0.004808  0.006249  0.91813  0.008  0.017121  0.004032  0.982234  0.005  0.016202  0.002677  0.977621  0.003  0.105359  0.01786  0.005153  0.985441  0.006
H  H32  1  0.11111064  0.81016751  0.69461732  1  0.0092  0.000525  0.960022  0.001  0.013772  0.000246  1.041029  0.001  0.013694  4.1e-05  1.036282  0.0  0.104348  0.013604  0.000456  1.044507  0.001
H  H33  1  0.38880582  0.68981487  0.19464802  1  0.009186  0.000179  0.960047  0.001  0.013746  5.4e-05  1.041033  0.0  0.013662  -4.7e-05  1.036285  0.0  0.104339  0.0136  0.000124  1.044507  0.0
H  H34  1  0.88882874  0.18983331  0.30538496  1  0.009195  -0.000204  0.96017  -0.001  0.013749  -4.6e-05  1.041181  0.0  0.013659  4.8e-05  1.036433  0.0  0.104302  0.013604  -0.000102  1.04466  0.0
H  H35  1  0.61112391  0.31014968  0.80542926  1  0.009071  0.000507  0.960233  0.001  0.013839  0.000218  1.041028  0.001  0.013688  2.3e-05  1.036342  0.0  0.104324  0.013661  0.000417  1.04452  0.001
H  H36  1  0.19768540  0.50804469  0.84369566  1  0.304484  -0.000655  0.927162  -0.002  0.292354  0.000591  0.987807  0.0  0.30121  0.000376  0.981955  0.0  0.286044  0.286022  0.000747  0.99222  0.0
H  H37  1  0.30206413  0.99198156  0.34362494  1  0.304186  -0.000567  0.927362  -0.002  0.292008  0.000589  0.988092  0.0  0.300869  0.00038  0.982264  0.0  0.285941  0.285665  0.000724  0.992497  0.0
H  H38  1  0.80204950  0.49197910  0.15635396  1  0.304361  0.000334  0.927225  0.002  0.292129  -0.000708  0.988046  0.0  0.300995  -0.000497  0.982206  0.0  0.285927  0.285789  -0.000831  0.992461  0.0
H  H39  1  0.69763108  0.00807931  0.65633000  1  0.304661  -0.000662  0.926832  -0.002  0.292541  0.000585  0.987462  0.0  0.301393  0.000372  0.981614  0.0  0.286137  0.28621  0.000739  0.991871  0.0
H  H40  1  0.54367156  0.51051345  0.85672896  1  0.298768  -0.000618  0.941402  -0.002  0.286461  0.000439  1.003867  0.0  0.29464  8.8e-05  0.999156  -0.001  0.282801  0.280668  0.000748  1.007405  0.0
H  H41  1  0.95606561  0.98947151  0.35666182  1  0.298936  -0.000968  0.941256  -0.002  0.286415  0.000106  1.004053  0.0  0.294628  -9.5e-05  0.999289  -0.001  0.282707  0.280559  0.000237  1.007688  0.0
H  H42  1  0.45602843  0.48945674  0.14331205  1  0.29875  0.000779  0.941571  0.002  0.286292  -0.000166  1.004254  0.0  0.2945  2.3e-05  0.999508  0.001  0.282686  0.280447  -0.000278  1.00787  0.0
H  H43  1  0.04362087  0.01052550  0.64332571  1  0.298979  -0.000597  0.940831  -0.002  0.286569  0.000478  1.003455  0.0  0.294695  0.000113  0.998814  -0.001  0.282804  0.280785  0.000797  1.006968  0.0
C  C44  1  0.34536053  0.60654916  0.93624383  1  -6.8e-05  -0.001624  3.665142  -0.004  -0.061654  0.001569  3.935918  -0.001  -0.05602  0.000702  3.945723  -0.001  -0.065787  -0.0652  0.002274  3.929649  0.0
C  C45  1  0.15460048  0.89348608  0.43620661  1  -0.000714  -0.001509  3.665508  -0.004  -0.061904  0.001605  3.935826  -0.001  -0.05638  0.000728  3.945822  -0.001  -0.065602  -0.065514  0.002313  3.929567  0.0
C  C46  1  0.65462129  0.39347923  0.06377690  1  -0.000839  0.001024  3.665627  0.004  -0.062386  -0.001817  3.936448  0.001  -0.056754  -0.000986  3.946307  0.001  -0.065906  -0.065961  -0.002436  3.930141  0.0
C  C47  1  0.84539991  0.10654231  0.56376124  1  -0.000741  -0.001575  3.665224  -0.004  -0.06207  0.001591  3.935783  -0.001  -0.056516  0.000723  3.945689  -0.001  -0.065844  -0.065612  0.002298  3.929505  0.0
C  C48  1  0.55782403  0.70012969  0.94406921  1  0.230965  -0.004258  3.710047  -0.004  0.235946  0.00046  3.955159  0.0  0.2456  -0.000744  3.976177  -0.001  0.12039  0.229659  0.00145  3.941268  0.001
C  C49  1  0.94217875  0.79989155  0.44406043  1  0.230919  -0.004445  3.710434  -0.004  0.235618  0.000309  3.955527  0.0  0.245299  -0.000835  3.976594  -0.001  0.120154  0.229335  0.001218  3.941632  0.001
C  C50  1  0.44218189  0.29988844  0.05592877  1  0.231021  0.003721  3.710016  0.004  0.235861  -0.000596  3.955217  0.0  0.245521  0.000516  3.976248  0.001  0.120238  0.229568  -0.001448  3.941321  -0.001
C  C51  1  0.05788042  0.20012499  0.55592833  1  0.230946  -0.004252  3.709727  -0.004  0.235933  0.000435  3.954815  0.0  0.245609  -0.000752  3.975848  -0.001  0.120168  0.229644  0.001408  3.940908  0.001
C  C52  1  0.68933552  0.73337201  0.01705907  1  -0.158793  0.006984  3.689413  0.007  -0.174704  0.002657  3.930688  0.003  -0.183128  0.002506  3.950481  0.003  -0.082861  -0.169526  0.00279  3.918108  0.003
C  C53  1  0.81061369  0.76669097  0.51705524  1  -0.158567  0.007085  3.68891  0.007  -0.17429  0.002789  3.930149  0.003  -0.182697  0.002613  3.949943  0.003  -0.082546  -0.16912  0.002938  3.917555  0.003
C  C54  1  0.31060724  0.26669584  0.98293768  1  -0.158724  -0.00748  3.689164  -0.007  -0.174464  -0.002695  3.930325  -0.003  -0.182881  -0.00265  3.950131  -0.003  -0.082515  -0.169281  -0.002707  3.917714  -0.003
C  C55  1  0.18938396  0.23337370  0.48293905  1  -0.158815  0.006854  3.689515  0.007  -0.174675  0.002594  3.930826  0.003  -0.183091  0.002495  3.950625  0.003  -0.082824  -0.169497  0.002659  3.918256  0.003
C  C56  1  0.88177451  0.82259462  0.01602931  1  -0.004983  -0.008106  3.714132  -0.007  -0.023201  -0.002342  3.960596  -0.002  -0.018001  -0.002609  3.977972  -0.002  -0.069211  -0.026861  -0.002056  3.949575  -0.002
C  C57  1  0.61823893  0.67744635  0.51604689  1  -0.005012  -0.008183  3.714079  -0.007  -0.023262  -0.002453  3.960625  -0.002  -0.018031  -0.002667  3.978008  -0.003  -0.069119  -0.026997  -0.002248  3.949575  -0.002
C  C58  1  0.11819236  0.17746297  0.98394776  1  -0.005023  0.007519  3.714293  0.007  -0.023218  0.002365  3.96081  0.002  -0.017991  0.002467  3.978208  0.002  -0.069115  -0.026908  0.002277  3.949734  0.002
C  C59  1  0.38183046  0.32259305  0.48396338  1  -0.005  -0.008085  3.714201  -0.007  -0.023341  -0.002388  3.960675  -0.002  -0.018114  -0.00259  3.978084  -0.002  -0.069156  -0.027027  -0.00217  3.949632  -0.002
C  C60  1  0.93563839  0.87608197  0.94198576  1  -0.129444  0.009612  3.740029  0.01  -0.14229  0.004176  3.990682  0.005  -0.151033  0.003637  4.012257  0.004  -0.086556  -0.136663  0.004578  3.976712  0.005
C  C61  1  0.56449290  0.62391101  0.44202646  1  -0.129559  0.009271  3.739567  0.01  -0.142551  0.003771  3.99018  0.005  -0.15131  0.003381  4.011751  0.004  -0.086677  -0.136917  0.004024  3.976228  0.005
C  C62  1  0.06442404  0.12392352  0.05797348  1  -0.129651  -0.010026  3.739668  -0.01  -0.142523  -0.003994  3.99023  -0.005  -0.151283  -0.00364  4.011804  -0.004  -0.086605  -0.13688  -0.004189  3.976244  -0.005
C  C63  1  0.43569910  0.37607706  0.55800164  1  -0.129115  0.009599  3.739646  0.01  -0.141961  0.004186  3.990307  0.005  -0.150703  0.003639  4.011878  0.004  -0.086403  -0.136333  0.004584  3.976339  0.005
C  C64  1  0.80006799  0.83783041  0.87101454  1  0.143863  -0.00735  3.690271  -0.008  0.11241  -0.000641  3.950034  -0.002  0.122461  -0.001639  3.967995  -0.003  0.050812  0.10553  0.0002  3.939139  -0.001
C  C65  1  0.70015835  0.66211663  0.37105856  1  0.143698  -0.007568  3.689848  -0.008  0.112232  -0.000855  3.949543  -0.002  0.122286  -0.00177  3.967509  -0.003  0.050529  0.105333  -9.4e-05  3.938686  -0.001
C  C66  1  0.20008630  0.16212457  0.12893979  1  0.143663  0.006633  3.68943  0.008  0.112255  0.000526  3.949135  0.002  0.122313  0.001392  3.967086  0.003  0.050639  0.105363  -0.000175  3.938269  0.001
C  C67  1  0.30013398  0.33782172  0.62897323  1  0.143777  -0.007311  3.689504  -0.008  0.112334  -0.000613  3.949342  -0.002  0.122385  -0.001614  3.967307  -0.003  0.050781  0.105424  0.000233  3.938469  -0.001
C  C68  1  0.02390658  0.58550067  0.68886795  1  0.560176  -0.006731  3.937039  -0.009  0.502581  -0.001308  4.243743  -0.004  0.539765  -0.001615  4.236903  -0.003  0.132818  0.477643  -0.00094  4.247053  -0.004
C  C69  1  0.47607307  0.91446568  0.18888314  1  0.560209  -0.006685  3.936574  -0.009  0.502561  -0.001305  4.243287  -0.004  0.539752  -0.001605  4.236489  -0.003  0.132931  0.47761  -0.000948  4.246586  -0.004
C  C70  1  0.97607227  0.41446229  0.31109436  1  0.560138  0.005787  3.936839  0.009  0.502464  0.000954  4.243582  0.004  0.539657  0.001255  4.236767  0.003  0.132896  0.47752  0.000632  4.246866  0.004
C  C71  1  0.52392215  0.08551224  0.81114127  1  0.560394  -0.006702  3.936868  -0.009  0.502785  -0.001292  4.24358  -0.004  0.539969  -0.001599  4.236742  -0.003  0.132828  0.477839  -0.000927  4.246915  -0.004
C  C72  1  0.32078182  0.84823279  0.67864556  1  0.538204  -0.004848  3.921854  -0.007  0.475697  -0.000531  4.229592  -0.002  0.510098  -0.000662  4.224729  -0.002  0.133012  0.452331  -0.000389  4.231717  -0.002
C  C73  1  0.17916432  0.65174404  0.17863959  1  0.538362  -0.00433  3.922017  -0.006  0.475771  -0.000472  4.229757  -0.002  0.510179  -0.000606  4.224912  -0.002  0.133115  0.452387  -0.000351  4.231896  -0.002
C  C74  1  0.67919878  0.15175224  0.32138254  1  0.538357  0.003712  3.921966  0.006  0.475785  0.000287  4.229723  0.002  0.5102  0.000396  4.224882  0.002  0.133184  0.452395  0.000215  4.23184  0.002
C  C75  1  0.82079889  0.34822996  0.82138297  1  0.538148  -0.004835  3.922672  -0.007  0.475517  -0.000591  4.230454  -0.002  0.509973  -0.000697  4.225613  -0.002  0.132917  0.452152  -0.00048  4.23257  -0.002
N  N76  1  0.37753069  0.55631557  0.85583459  1  -0.59443  0.11063  3.142711  0.136  -0.58219  0.071985  3.425173  0.092  -0.617152  0.057181  3.424781  0.078  -0.640449  -0.561022  0.080247  3.427316  0.099
N  N77  1  0.12227250  0.94368976  0.35577856  1  -0.593792  0.109789  3.142407  0.135  -0.58151  0.071453  3.42483  0.092  -0.616567  0.056945  3.424523  0.078  -0.64014  -0.560215  0.079181  3.426967  0.097
N  N78  1  0.62226026  0.44368611  0.14419535  1  -0.593798  -0.119747  3.14264  -0.134  -0.581333  -0.076415  3.424922  -0.092  -0.616425  -0.061938  3.424609  -0.078  -0.640014  -0.560028  -0.083446  3.427016  -0.097
N  N79  1  0.87749584  0.05633560  0.64418991  1  -0.594498  0.110664  3.142179  0.136  -0.582208  0.072086  3.424613  0.092  -0.617116  0.05725  3.424314  0.078  -0.640473  -0.56105  0.080331  3.426725  0.099
N  N80  1  0.61688025  0.75159401  0.87247892  1  -0.342924  0.074226  3.309006  0.093  -0.297603  0.053541  3.596347  0.071  -0.328434  0.044942  3.616615  0.063  -0.348492  -0.279558  0.058192  3.585135  0.074
N  N81  1  0.88329671  0.74836079  0.37249426  1  -0.34335  0.074147  3.310064  0.093  -0.297582  0.053469  3.596971  0.071  -0.328484  0.044919  3.617258  0.063  -0.348369  -0.279532  0.057944  3.58579  0.074
N  N82  1  0.38324990  0.24836334  0.12749999  1  -0.343087  -0.080895  3.309497  -0.093  -0.29756  -0.05724  3.596644  -0.071  -0.328448  -0.048912  3.616946  -0.063  -0.348416  -0.279507  -0.061123  3.585453  -0.074
N  N83  1  0.11693270  0.25158942  0.62751356  1  -0.342681  0.074184  3.308365  0.093  -0.297524  0.053526  3.595848  0.071  -0.328373  0.044935  3.616135  0.063  -0.348485  -0.279479  0.058135  3.584621  0.074
O  O84  1  0.28739544  0.58376518  0.68126287  1  -0.573976  0.083068  2.083885  0.111  -0.537535  0.053152  2.353501  0.077  -0.578107  0.040885  2.346284  0.063  -0.332769  -0.510101  0.061133  2.357789  0.084
O  O85  1  0.21258166  0.91620270  0.18126234  1  -0.574047  0.08289  2.083834  0.11  -0.537484  0.053034  2.353393  0.077  -0.578151  0.04083  2.34619  0.063  -0.332772  -0.509996  0.060801  2.357672  0.084
O  O86  1  0.71257680  0.41619620  0.31871113  1  -0.574068  -0.090556  2.083973  -0.11  -0.537436  -0.056828  2.353581  -0.076  -0.578079  -0.044508  2.346397  -0.063  -0.332743  -0.509952  -0.064207  2.357832  -0.084
O  O87  1  0.78741569  0.08379099  0.81874916  1  -0.574155  0.082938  2.083826  0.111  -0.537526  0.053122  2.353364  0.077  -0.578105  0.040865  2.346154  0.063  -0.332782  -0.510115  0.061061  2.357653  0.084
O  O88  1  0.90945744  0.63818333  0.74144363  1  -0.597861  -0.001492  2.1043  0.001  -0.567223  -0.001457  2.384422  0.0  -0.597257  -0.002409  2.370578  -0.001  -0.327884  -0.546933  -0.000372  2.393799  0.002
O  O89  1  0.59047547  0.86178124  0.24147843  1  -0.597917  -0.001555  2.104185  0.001  -0.567245  -0.001497  2.384258  0.0  -0.597338  -0.002432  2.370392  -0.001  -0.327991  -0.546965  -0.000449  2.393713  0.002
O  O90  1  0.09047877  0.36175125  0.25853037  1  -0.597617  0.001163  2.104158  -0.001  -0.567037  0.001291  2.384261  0.0  -0.597098  0.002196  2.370404  0.001  -0.327899  -0.546773  0.000271  2.393677  -0.002
O  O91  1  0.40946059  0.13821485  0.75857365  1  -0.597929  -0.001504  2.104154  0.001  -0.567369  -0.001462  2.384284  0.0  -0.59742  -0.00241  2.370457  -0.001  -0.32796  -0.547096  -0.000386  2.393666  0.002
O  O92  1  0.52925396  0.80171968  0.70282934  1  -0.572903  0.069994  2.115076  0.094  -0.53957  0.046222  2.405011  0.067  -0.580337  0.035609  2.397392  0.055  -0.333953  -0.5117  0.053817  2.409513  0.075
O  O93  1  0.97063545  0.69822267  0.20281732  1  -0.572537  0.069695  2.115051  0.093  -0.53923  0.046064  2.405075  0.067  -0.580114  0.035573  2.397481  0.055  -0.333745  -0.51123  0.053379  2.409546  0.074
O  O94  1  0.47064292  0.19819127  0.29716803  1  -0.572477  -0.076048  2.114965  -0.093  -0.539165  -0.049257  2.404844  -0.067  -0.580052  -0.038745  2.397287  -0.055  -0.333752  -0.511112  -0.056175  2.409235  -0.074
O  O95  1  0.02926505  0.30176398  0.79714377  1  -0.572545  0.069805  2.115247  0.093  -0.539267  0.046087  2.405215  0.067  -0.580064  0.035539  2.39759  0.055  -0.333884  -0.511349  0.053568  2.409655  0.075
O  O96  1  0.34151568  0.93314981  0.63861308  1  -0.562968  0.010851  2.001429  0.014  -0.5049  0.006085  2.216645  0.009  -0.529871  0.003201  2.210413  0.005  -0.315025  -0.486208  0.00922  2.219623  0.012
O  O97  1  0.15851342  0.56686164  0.13857651  1  -0.563343  0.006285  2.001913  0.008  -0.504961  0.003962  2.216989  0.005  -0.529903  0.002357  2.210707  0.003  -0.315108  -0.486355  0.00543  2.220097  0.007
O  O98  1  0.65856155  0.06688800  0.36148696  1  -0.563287  -0.006352  2.0017  -0.007  -0.504956  -0.003764  2.216816  -0.005  -0.52991  -0.002274  2.210523  -0.003  -0.315053  -0.486312  -0.005071  2.219924  -0.006
O  O99  1  0.84155196  0.43310836  0.86144851  1  -0.56303  0.010276  2.002136  0.014  -0.504955  0.005589  2.217417  0.008  -0.529928  0.002887  2.211129  0.004  -0.314902  -0.486275  0.008536  2.220444  0.012
