# generated using pymatgen
data_NaH9C8SN2O3
_symmetry_space_group_name_H-M   'P 1'
_cell_length_a   9.55054167
_cell_length_b   10.03005990
_cell_length_c   10.31636481
_cell_angle_alpha   89.99998998
_cell_angle_beta   97.96771663
_cell_angle_gamma   89.99995068
_symmetry_Int_Tables_number   1
_chemical_formula_structural   NaH9C8SN2O3
_chemical_formula_sum   'Na4 H36 C32 S4 N8 O12'
_cell_volume   978.69037668
_cell_formula_units_Z   4
loop_
 _symmetry_equiv_pos_site_id
 _symmetry_equiv_pos_as_xyz
  1  'x, y, z'
loop_
 _atom_site_type_symbol
 _atom_site_label
 _atom_site_symmetry_multiplicity
 _atom_site_fract_x
 _atom_site_fract_y
 _atom_site_fract_z
 _atom_site_occupancy
 _atom_site_hle17_bader_spin_density
 _atom_site_hle17_ddec_charge
 _atom_site_hle17_ddec_spin_density
 _atom_site_hle17_ddec_sum_bond_order
 _atom_site_hle17_magmom
 _atom_site_hse06_10hf_bader_spin_density
 _atom_site_hse06_10hf_ddec_charge
 _atom_site_hse06_10hf_ddec_spin_density
 _atom_site_hse06_10hf_ddec_sum_bond_order
 _atom_site_hse06_10hf_magmom
 _atom_site_hse06_bader_spin_density
 _atom_site_hse06_ddec_charge
 _atom_site_hse06_ddec_spin_density
 _atom_site_hse06_ddec_sum_bond_order
 _atom_site_hse06_magmom
 _atom_site_pbe_bader_spin_density
 _atom_site_pbe_cm5_charge
 _atom_site_pbe_ddec_charge
 _atom_site_pbe_ddec_spin_density
 _atom_site_pbe_ddec_sum_bond_order
 _atom_site_pbe_magmom
Na  Na0  1  0.23959555  0.48221130  0.83285607  1  0  0.884686  0  0.425827  0  0  0.823572  0  0.603316  0  0  0.835689  0  0.58059  0  0  0.713435  0.814952  0  0.619149  0
Na  Na1  1  0.26040393  0.98221136  0.16714343  1  0  0.88468  0  0.425838  0  0  0.823561  0  0.603338  0  0  0.835673  0  0.580612  0  0  0.71343  0.814947  0  0.619154  0
Na  Na2  1  0.76040359  0.51778920  0.16714314  1  0  0.884678  0  0.425852  0  0  0.823559  0  0.603357  0  0  0.835658  0  0.580618  0  0  0.713435  0.814947  0  0.619167  0
Na  Na3  1  0.73959627  0.01778915  0.83285591  1  0  0.884678  0  0.425846  0  0  0.823558  0  0.603342  0  0  0.835677  0  0.58062  0  0  0.713429  0.814935  0  0.619179  0
H  H4  1  0.39761687  0.43872997  0.56390069  1  0  0.069352  0  0.966923  0  0  0.076258  0  1.036426  0  0  0.078242  0  1.035657  0  0  0.110782  0.074387  0  1.038001  0
H  H5  1  0.10238265  0.93873010  0.43609689  1  0  0.069327  0  0.966928  0  0  0.076234  0  1.036435  0  0  0.078221  0  1.035652  0  0  0.110779  0.074362  0  1.038009  0
H  H6  1  0.60238333  0.56126954  0.43609769  1  0  0.06933  0  0.966922  0  0  0.076235  0  1.036431  0  0  0.078219  0  1.035664  0  0  0.110773  0.074364  0  1.038004  0
H  H7  1  0.89761650  0.06126940  0.56390135  1  0  0.069314  0  0.966876  0  0  0.076219  0  1.036389  0  0  0.078207  0  1.035609  0  0  0.110766  0.074348  0  1.037962  0
H  H8  1  0.37035234  0.49935476  0.32389338  1  0  0.110333  0  0.956859  0  0  0.118669  0  1.018322  0  0  0.122195  0  1.017121  0  0  0.106974  0.116085  0  1.019349  0
H  H9  1  0.12964712  0.99935384  0.67610612  1  0  0.110322  0  0.956887  0  0  0.118653  0  1.018363  0  0  0.122184  0  1.01715  0  0  0.106965  0.11607  0  1.019391  0
H  H10  1  0.62964892  0.50064774  0.67610610  1  0  0.110324  0  0.956817  0  0  0.118647  0  1.018309  0  0  0.122181  0  1.01709  0  0  0.10695  0.116061  0  1.019345  0
H  H11  1  0.87035202  0.00064567  0.32389309  1  0  0.110335  0  0.956843  0  0  0.118669  0  1.018313  0  0  0.122199  0  1.017103  0  0  0.106966  0.116084  0  1.019341  0
H  H12  1  0.16644969  0.64458529  0.23352143  1  0  0.106599  0  0.948613  0  0  0.113899  0  1.012967  0  0  0.117148  0  1.010091  0  0  0.115178  0.111618  0  1.0149  0
H  H13  1  0.33354905  0.14458417  0.76647803  1  0  0.106577  0  0.948643  0  0  0.113866  0  1.013007  0  0  0.11711  0  1.01014  0  0  0.115177  0.111585  0  1.014943  0
H  H14  1  0.83354945  0.35541521  0.76647777  1  0  0.106598  0  0.948618  0  0  0.113884  0  1.012985  0  0  0.117129  0  1.010113  0  0  0.115181  0.111602  0  1.01492  0
H  H15  1  0.66645009  0.85541434  0.23352214  1  0  0.106599  0  0.948603  0  0  0.113887  0  1.012963  0  0  0.117132  0  1.010091  0  0  0.115177  0.111605  0  1.014898  0
H  H16  1  0.00012746  0.72387500  0.38280429  1  0  0.112611  0  0.956679  0  0  0.119498  0  1.024102  0  0  0.123106  0  1.022649  0  0  0.110616  0.116852  0  1.025337  0
H  H17  1  0.49987120  0.22387477  0.61719611  1  0  0.112625  0  0.956667  0  0  0.1195  0  1.0241  0  0  0.123108  0  1.022647  0  0  0.110615  0.116856  0  1.025329  0
H  H18  1  0.99987168  0.27612550  0.61719491  1  0  0.112615  0  0.95667  0  0  0.119492  0  1.024109  0  0  0.123101  0  1.022655  0  0  0.110623  0.11685  0  1.025334  0
H  H19  1  0.50012794  0.77612573  0.38280503  1  0  0.112614  0  0.956682  0  0  0.119499  0  1.024113  0  0  0.123106  0  1.022661  0  0  0.110615  0.116855  0  1.02534  0
H  H20  1  0.93174739  0.73756844  0.60113871  1  0  0.064017  0  0.935935  0  0  0.074577  0  1.001702  0  0  0.076891  0  1.000723  0  0  0.108442  0.072943  0  1.002201  0
H  H21  1  0.56825227  0.23756960  0.39886124  1  0  0.063953  0  0.935936  0  0  0.074527  0  1.001703  0  0  0.076849  0  1.000712  0  0  0.108428  0.072893  0  1.002202  0
H  H22  1  0.06825281  0.26243107  0.39886160  1  0  0.06406  0  0.935976  0  0  0.074613  0  1.001735  0  0  0.076935  0  1.000749  0  0  0.108454  0.07298  0  1.002232  0
H  H23  1  0.43174793  0.76243091  0.60113907  1  0  0.063983  0  0.935912  0  0  0.074531  0  1.001704  0  0  0.076853  0  1.000715  0  0  0.108422  0.072898  0  1.002203  0
H  H24  1  0.89635857  0.60894606  0.89589659  1  0  0.081064  0  0.902643  0  0  0.102087  0  0.954816  0  0  0.102394  0  0.955027  0  0  0.11961  0.101895  0  0.954531  0
H  H25  1  0.60364331  0.10894725  0.10410561  1  0  0.081054  0  0.902666  0  0  0.102039  0  0.954879  0  0  0.102344  0  0.955097  0  0  0.119588  0.101848  0  0.954589  0
H  H26  1  0.10364373  0.39105145  0.10410496  1  0  0.081037  0  0.902678  0  0  0.102009  0  0.954915  0  0  0.102315  0  0.955129  0  0  0.11959  0.101818  0  0.954626  0
H  H27  1  0.39635794  0.89105326  0.89589581  1  0  0.081035  0  0.902663  0  0  0.102033  0  0.954865  0  0  0.10234  0  0.955076  0  0  0.11958  0.10184  0  0.954582  0
H  H28  1  0.85493265  0.75178372  0.79426019  1  0  0.046782  0  0.935402  0  0  0.058703  0  1.006959  0  0  0.060189  0  1.006021  0  0  0.100673  0.057269  0  1.008162  0
H  H29  1  0.64506593  0.25178585  0.20574058  1  0  0.046795  0  0.935395  0  0  0.058696  0  1.006957  0  0  0.060195  0  1.006009  0  0  0.100675  0.057263  0  1.008157  0
H  H30  1  0.14506543  0.24821379  0.20574081  1  0  0.046774  0  0.935433  0  0  0.058686  0  1.006985  0  0  0.060174  0  1.006047  0  0  0.100665  0.05725  0  1.008188  0
H  H31  1  0.35493426  0.74821565  0.79426070  1  0  0.046768  0  0.935438  0  0  0.058694  0  1.006979  0  0  0.060172  0  1.006051  0  0  0.100671  0.057261  0  1.008181  0
H  H32  1  0.06357922  0.87290694  0.91391855  1  0  0.130429  0  0.95271  0  0  0.14063  0  1.015042  0  0  0.143942  0  1.013369  0  0  0.111912  0.138341  0  1.016225  0
H  H33  1  0.43642036  0.37290686  0.08608099  1  0  0.130424  0  0.952679  0  0  0.140623  0  1.015022  0  0  0.143934  0  1.013352  0  0  0.111909  0.138333  0  1.0162  0
H  H34  1  0.93641886  0.12709157  0.08608052  1  0  0.130416  0  0.952706  0  0  0.140614  0  1.01504  0  0  0.143926  0  1.013367  0  0  0.111903  0.138322  0  1.01622  0
H  H35  1  0.56358089  0.62709365  0.91391946  1  0  0.130433  0  0.952693  0  0  0.140635  0  1.015028  0  0  0.143952  0  1.013356  0  0  0.11191  0.138345  0  1.016208  0
H  H36  1  0.12048550  0.72406641  0.00090382  1  0  0.137366  0  0.961049  0  0  0.146393  0  1.025431  0  0  0.150128  0  1.022915  0  0  0.115268  0.14362  0  1.027513  0
H  H37  1  0.37951423  0.22406521  0.99909479  1  0  0.137354  0  0.961043  0  0  0.146382  0  1.025426  0  0  0.150121  0  1.022911  0  0  0.115259  0.143607  0  1.027505  0
H  H38  1  0.87951470  0.27593409  0.99909552  1  0  0.137379  0  0.961043  0  0  0.146403  0  1.02542  0  0  0.150144  0  1.022901  0  0  0.115272  0.143628  0  1.0275  0
H  H39  1  0.62048491  0.77593529  0.00090539  1  0  0.137361  0  0.961047  0  0  0.146392  0  1.02542  0  0  0.150135  0  1.022905  0  0  0.115257  0.143618  0  1.027501  0
C  C40  1  0.31163649  0.50287419  0.51984081  1  0  0.115499  0  3.764224  0  0  0.092452  0  4.021272  0  0  0.097219  0  4.039835  0  0  0.04194  0.089133  0  4.009101  0
C  C41  1  0.18836238  0.00287524  0.48015772  1  0  0.115571  0  3.764149  0  0  0.092522  0  4.021197  0  0  0.09729  0  4.039762  0  0  0.041951  0.089204  0  4.009025  0
C  C42  1  0.68836371  0.49712532  0.48015756  1  0  0.115519  0  3.764213  0  0  0.092469  0  4.021266  0  0  0.097234  0  4.039824  0  0  0.041948  0.089151  0  4.009092  0
C  C43  1  0.81163676  0.99712427  0.51984149  1  0  0.115582  0  3.764136  0  0  0.092532  0  4.021194  0  0  0.0973  0  4.039757  0  0  0.041973  0.089213  0  4.00902  0
C  C44  1  0.29580020  0.53569854  0.38674246  1  0  -0.127538  0  3.714598  0  0  -0.141078  0  3.965724  0  0  -0.148057  0  3.987627  0  0  -0.083849  -0.136093  0  3.950774  0
C  C45  1  0.20419759  0.03569755  0.61325689  1  0  -0.127578  0  3.71456  0  0  -0.141112  0  3.96569  0  0  -0.14809  0  3.987594  0  0  -0.083868  -0.136129  0  3.950744  0
C  C46  1  0.70419895  0.46430097  0.61325674  1  0  -0.127533  0  3.71451  0  0  -0.141064  0  3.965629  0  0  -0.148041  0  3.98753  0  0  -0.08384  -0.136082  0  3.95068  0
C  C47  1  0.79580155  0.96430096  0.38674328  1  0  -0.127551  0  3.714554  0  0  -0.141094  0  3.965684  0  0  -0.148074  0  3.987587  0  0  -0.083853  -0.136109  0  3.950733  0
C  C48  1  0.18301198  0.61706500  0.33649192  1  0  0.015508  0  3.687933  0  0  -0.004269  0  3.939355  0  0  -0.000992  0  3.957558  0  0  -0.057974  -0.006386  0  3.926721  0
C  C49  1  0.31698573  0.11706392  0.66350838  1  0  0.015566  0  3.68791  0  0  -0.004218  0  3.939341  0  0  -0.000941  0  3.957551  0  0  -0.05795  -0.006334  0  3.926707  0
C  C50  1  0.81698716  0.38293650  0.66350729  1  0  0.015518  0  3.68793  0  0  -0.004246  0  3.939347  0  0  -0.00097  0  3.957553  0  0  -0.057942  -0.006364  0  3.926716  0
C  C51  1  0.68301341  0.88293559  0.33649276  1  0  0.015528  0  3.687892  0  0  -0.004231  0  3.939313  0  0  -0.000952  0  3.957519  0  0  -0.057954  -0.006349  0  3.926679  0
C  C52  1  0.09073142  0.66232997  0.42049557  1  0  -0.139028  0  3.684184  0  0  -0.160109  0  3.931491  0  0  -0.166472  0  3.952655  0  0  -0.071866  -0.155501  0  3.917572  0
C  C53  1  0.40926730  0.16232982  0.57950485  1  0  -0.139015  0  3.684185  0  0  -0.160055  0  3.931474  0  0  -0.166416  0  3.952637  0  0  -0.07183  -0.155446  0  3.917559  0
C  C54  1  0.90926772  0.33767154  0.57950460  1  0  -0.138949  0  3.684237  0  0  -0.160003  0  3.931542  0  0  -0.166364  0  3.952704  0  0  -0.071822  -0.155395  0  3.917623  0
C  C55  1  0.59073184  0.83766969  0.42049629  1  0  -0.139023  0  3.684161  0  0  -0.160102  0  3.93146  0  0  -0.166465  0  3.952623  0  0  -0.071853  -0.155493  0  3.917543  0
C  C56  1  0.11553897  0.62597423  0.55267267  1  0  0.177253  0  3.829583  0  0  0.183946  0  4.07352  0  0  0.187715  0  4.094888  0  0  0.108157  0.181328  0  4.059473  0
C  C57  1  0.38445872  0.12597512  0.44732666  1  0  0.177273  0  3.829552  0  0  0.18392  0  4.07354  0  0  0.187688  0  4.094912  0  0  0.108164  0.181305  0  4.059491  0
C  C58  1  0.88446017  0.37402528  0.44732751  1  0  0.177227  0  3.829629  0  0  0.183864  0  4.073642  0  0  0.18763  0  4.095014  0  0  0.108121  0.181248  0  4.059592  0
C  C59  1  0.61554041  0.87402638  0.55267351  1  0  0.1773  0  3.829515  0  0  0.183987  0  4.073461  0  0  0.187757  0  4.094828  0  0  0.108182  0.181369  0  4.059415  0
C  C60  1  0.02052432  0.67374067  0.64390510  1  0  0.087538  0  3.704637  0  0  0.053345  0  3.959483  0  0  0.060204  0  3.974004  0  0  0.076582  0.049061  0  3.949406  0
C  C61  1  0.47947545  0.17374150  0.35609546  1  0  0.087562  0  3.704613  0  0  0.053369  0  3.959465  0  0  0.060224  0  3.973987  0  0  0.076565  0.049083  0  3.949387  0
C  C62  1  0.97947588  0.32625784  0.35609618  1  0  0.087385  0  3.704591  0  0  0.053217  0  3.959455  0  0  0.060069  0  3.973976  0  0  0.076516  0.048931  0  3.949379  0
C  C63  1  0.52052475  0.82625900  0.64390485  1  0  0.087527  0  3.704525  0  0  0.053337  0  3.959386  0  0  0.060193  0  3.973904  0  0  0.076573  0.049053  0  3.94931  0
C  C64  1  0.94235716  0.69435930  0.84941530  1  0  0.06077  0  3.690058  0  0  0.008996  0  3.954692  0  0  0.013256  0  3.966013  0  0  -0.057398  0.006428  0  3.946769  0
C  C65  1  0.55764465  0.19435951  0.15058494  1  0  0.060761  0  3.689963  0  0  0.009037  0  3.954565  0  0  0.013289  0  3.965893  0  0  -0.05739  0.006471  0  3.946632  0
C  C66  1  0.05764515  0.30563921  0.15058432  1  0  0.060785  0  3.690017  0  0  0.009058  0  3.954622  0  0  0.013313  0  3.965952  0  0  -0.057401  0.006488  0  3.946697  0
C  C67  1  0.44235555  0.80564099  0.84941537  1  0  0.060812  0  3.690039  0  0  0.009066  0  3.954625  0  0  0.013331  0  3.965966  0  0  -0.057379  0.0065  0  3.946697  0
C  C68  1  0.02774169  0.77991449  0.95490120  1  0  -0.35793  0  3.620114  0  0  -0.390386  0  3.869179  0  0  -0.397149  0  3.875234  0  0  -0.155372  -0.385662  0  3.865158  0
C  C69  1  0.47225798  0.27991538  0.04509739  1  0  -0.357872  0  3.620021  0  0  -0.390318  0  3.869045  0  0  -0.397092  0  3.875121  0  0  -0.155336  -0.385614  0  3.865074  0
C  C70  1  0.97225851  0.22008303  0.04509815  1  0  -0.357899  0  3.620165  0  0  -0.390326  0  3.869172  0  0  -0.397099  0  3.875238  0  0  -0.155331  -0.385583  0  3.865116  0
C  C71  1  0.52774222  0.72008513  0.95490195  1  0  -0.357899  0  3.62003  0  0  -0.390361  0  3.869081  0  0  -0.397153  0  3.875172  0  0  -0.155341  -0.385641  0  3.865069  0
S  S72  1  0.93191592  0.82709637  0.08507561  1  0  1.383135  0  5.607605  0  0  1.298572  0  6.125452  0  0  1.343527  0  6.102856  0  0  0.509253  1.267465  0  6.140337  0
S  S73  1  0.56808576  0.32709643  0.91492363  1  0  1.383173  0  5.607593  0  0  1.298606  0  6.125443  0  0  1.343569  0  6.102846  0  0  0.509256  1.267502  0  6.140324  0
S  S74  1  0.06808639  0.17290314  0.91492401  1  0  1.383033  0  5.607787  0  0  1.29845  0  6.125652  0  0  1.343411  0  6.103058  0  0  0.509192  1.26734  0  6.140537  0
S  S75  1  0.43191549  0.67290407  0.08507682  1  0  1.383038  0  5.607681  0  0  1.298466  0  6.12555  0  0  1.343431  0  6.10296  0  0  0.509206  1.26736  0  6.140433  0
N  N76  1  0.22495993  0.54685302  0.60178507  1  0  -0.399614  0  3.133098  0  0  -0.360736  0  3.39938  0  0  -0.37129  0  3.413067  0  0  -0.384516  -0.353721  0  3.390193  0
N  N77  1  0.27503785  0.04685401  0.39821330  1  0  -0.399683  0  3.133033  0  0  -0.360797  0  3.399344  0  0  -0.371353  0  3.413032  0  0  -0.384558  -0.353786  0  3.390157  0
N  N78  1  0.77503922  0.45314649  0.39821316  1  0  -0.399621  0  3.133049  0  0  -0.360731  0  3.399366  0  0  -0.371282  0  3.413046  0  0  -0.384543  -0.35372  0  3.390177  0
N  N79  1  0.72496129  0.95314650  0.60178687  1  0  -0.399715  0  3.133071  0  0  -0.360837  0  3.39937  0  0  -0.371394  0  3.413057  0  0  -0.384584  -0.353823  0  3.390183  0
N  N80  1  0.03961803  0.64229219  0.76523500  1  0  -0.32938  0  3.066132  0  0  -0.279302  0  3.343496  0  0  -0.291674  0  3.35797  0  0  -0.367719  -0.27102  0  3.33349  0
N  N81  1  0.46038071  0.14229306  0.23476543  1  0  -0.329375  0  3.06605  0  0  -0.279299  0  3.343391  0  0  -0.29167  0  3.357867  0  0  -0.367709  -0.271016  0  3.333382  0
N  N82  1  0.96038111  0.35770732  0.23476420  1  0  -0.329309  0  3.065845  0  0  -0.279235  0  3.343189  0  0  -0.2916  0  3.357657  0  0  -0.367689  -0.270956  0  3.333182  0
N  N83  1  0.53961843  0.85770844  0.76523572  1  0  -0.329347  0  3.066009  0  0  -0.279268  0  3.343359  0  0  -0.291637  0  3.357831  0  0  -0.367693  -0.270986  0  3.33335  0
O  O84  1  0.81189313  0.91104108  0.02851771  1  0  -0.74539  0  1.923398  0  0  -0.693331  0  2.180904  0  0  -0.713177  0  2.164584  0  0  -0.421551  -0.679522  0  2.191781  0
O  O85  1  0.68810742  0.41104104  0.97148330  1  0  -0.745433  0  1.923357  0  0  -0.69337  0  2.18087  0  0  -0.713209  0  2.164534  0  0  -0.421583  -0.67956  0  2.191744  0
O  O86  1  0.18810813  0.08895743  0.97148080  1  0  -0.745374  0  1.923416  0  0  -0.693303  0  2.180916  0  0  -0.713151  0  2.164595  0  0  -0.421547  -0.679494  0  2.191792  0
O  O87  1  0.31189277  0.58895946  0.02851798  1  0  -0.745373  0  1.923391  0  0  -0.693304  0  2.180906  0  0  -0.713152  0  2.164581  0  0  -0.421548  -0.679496  0  2.19178  0
O  O88  1  0.88531146  0.70223870  0.14007458  1  0  -0.746749  0  1.926212  0  0  -0.695502  0  2.188111  0  0  -0.715779  0  2.172544  0  0  -0.435437  -0.680995  0  2.197834  0
O  O89  1  0.61468929  0.20223874  0.85992552  1  0  -0.746765  0  1.926269  0  0  -0.695512  0  2.188154  0  0  -0.715798  0  2.172606  0  0  -0.43542  -0.681003  0  2.197884  0
O  O90  1  0.11468874  0.29776081  0.85992573  1  0  -0.746728  0  1.926291  0  0  -0.695479  0  2.188191  0  0  -0.715762  0  2.17264  0  0  -0.435413  -0.680972  0  2.197919  0
O  O91  1  0.38531091  0.79776177  0.14007479  1  0  -0.746723  0  1.926272  0  0  -0.695479  0  2.188187  0  0  -0.715751  0  2.17261  0  0  -0.435412  -0.680972  0  2.197911  0
O  O92  1  0.03359447  0.90105341  0.17901319  1  0  -0.737325  0  1.918763  0  0  -0.686883  0  2.179007  0  0  -0.707252  0  2.164202  0  0  -0.413135  -0.672475  0  2.189141  0
O  O93  1  0.46640719  0.40105417  0.82098758  1  0  -0.737298  0  1.918763  0  0  -0.686862  0  2.179018  0  0  -0.707234  0  2.164212  0  0  -0.413118  -0.672451  0  2.189152  0
O  O94  1  0.96640678  0.09894510  0.82098726  1  0  -0.73725  0  1.918785  0  0  -0.686804  0  2.179042  0  0  -0.707176  0  2.16424  0  0  -0.413097  -0.672396  0  2.189177  0
O  O95  1  0.53359406  0.59894634  0.17901287  1  0  -0.737275  0  1.918768  0  0  -0.686833  0  2.179028  0  0  -0.707198  0  2.164211  0  0  -0.413115  -0.672424  0  2.189158  0
