# generated using pymatgen
data_Zr6H30C52S5O49
_symmetry_space_group_name_H-M   'P 1'
_cell_length_a   14.89248953
_cell_length_b   14.76660684
_cell_length_c   14.84242386
_cell_angle_alpha   59.69330914
_cell_angle_beta   59.27419032
_cell_angle_gamma   59.94212640
_symmetry_Int_Tables_number   1
_chemical_formula_structural   Zr6H30C52S5O49
_chemical_formula_sum   'Zr6 H30 C52 S5 O49'
_cell_volume   2288.78829063
_cell_formula_units_Z   1
loop_
 _symmetry_equiv_pos_site_id
 _symmetry_equiv_pos_as_xyz
  1  'x, y, z'
loop_
 _atom_site_type_symbol
 _atom_site_label
 _atom_site_symmetry_multiplicity
 _atom_site_fract_x
 _atom_site_fract_y
 _atom_site_fract_z
 _atom_site_occupancy
 _atom_site_pbe_bader_charge
 _atom_site_pbe_bader_spin_density
 _atom_site_pbe_cm5_charge
 _atom_site_pbe_ddec_charge
 _atom_site_pbe_ddec_spin_density
 _atom_site_pbe_ddec_sum_bond_order
 _atom_site_pbe_magmom
Zr  Zr0  1  0.87111265  0.88096351  0.62133907  1  2.640453  0  1.635007  2.374851  0  2.739235  0
Zr  Zr1  1  0.11471727  0.11673934  0.38677497  1  2.62704  0  1.632213  2.3689  0  2.770865  0
Zr  Zr2  1  0.10698139  0.87727595  0.62655294  1  2.632018  0  1.623789  2.37261  0  2.72564  0
Zr  Zr3  1  0.87559739  0.12253012  0.38155075  1  2.640244  0  1.642002  2.380277  0  2.740436  0
Zr  Zr4  1  0.11370143  0.88309994  0.38161215  1  2.630562  0  1.632299  2.37086  0  2.752269  0
Zr  Zr5  1  0.87310321  0.11995940  0.62184267  1  2.62409  0  1.629935  2.36762  0  2.760958  0
H  H6  1  0.08319200  0.71692302  0.59672945  1  0.621157  0  0.331478  0.423145  0  0.858294  0
H  H7  1  0.09371037  0.09417049  0.22037953  1  0.600655  0  0.331815  0.421463  0  0.864459  0
H  H8  1  0.08583684  0.09086067  0.60022401  1  0.603814  0  0.326891  0.418678  0  0.865144  0
H  H9  1  0.71152784  0.09598109  0.59520383  1  0.625144  0  0.334829  0.426157  0  0.853418  0
H  H10  1  0.81882384  0.61754551  0.60312097  1  0.116576  0  0.122174  0.12893  0  0.967945  0
H  H11  1  0.13947277  0.59662723  0.34642432  1  0.183181  0  0.118864  0.138233  0  1.029261  0
H  H12  1  0.82955655  0.44561197  0.59812575  1  0.124392  0  0.117133  0.126382  0  0.983332  0
H  H13  1  0.58039012  0.84659728  0.93552100  1  0.137145  0  0.122255  0.131089  0  0.965893  0
H  H14  1  0.57235910  0.16054943  0.89410271  1  0.209232  0  0.119541  0.143196  0  1.017227  0
H  H15  1  0.41182994  0.85742849  0.10497796  1  0.188738  0  0.116049  0.141134  0  1.019709  0
H  H16  1  0.12164336  0.83642861  0.09885554  1  0.116162  0  0.12428  0.134142  0  0.9628  0
H  H17  1  0.83922349  0.13309512  0.11129907  1  0.136031  0  0.122997  0.137496  0  1.00026  0
H  H18  1  0.10896843  0.84618046  0.93313141  1  0.129704  0  0.115925  0.129167  0  0.998559  0
H  H19  1  0.57304113  0.42735715  0.64973194  1  0.116886  0  0.12182  0.131983  0  0.966283  0
H  H20  1  0.59711501  0.41166627  0.35604888  1  0.163704  0  0.121963  0.139746  0  1.003516  0
H  H21  1  0.40451629  0.59370407  0.63941630  1  0.203704  0  0.117827  0.141049  0  1.002874  0
H  H22  1  0.95358881  0.57152839  0.75512704  1  0.101094  0  0.105346  0.130552  0  1.034264  0
H  H23  1  0.02998080  0.22046681  0.06720006  1  0.073718  0  0.10412  0.12272  0  1.017134  0
H  H24  1  0.01211968  0.49736496  0.16116497  1  0.097933  0  0.106838  0.119365  0  1.003312  0
H  H25  1  0.00781892  0.66553173  0.99035240  1  0.076174  0  0.108458  0.113151  0  0.989593  0
H  H26  1  0.59280677  0.12374872  0.33483642  1  0.132142  0  0.125141  0.136124  0  0.959778  0
H  H27  1  0.58715929  0.85836214  0.64798837  1  0.137323  0  0.119144  0.13577  0  1.007922  0
H  H28  1  0.42696221  0.10936997  0.34889469  1  0.15637  0  0.117005  0.139284  0  1.008843  0
H  H29  1  0.23296605  0.24844371  0.38840722  1  0.654348  0  0.322303  0.376721  0  0.933609  0
H  H30  1  0.22691146  0.31237113  0.13329574  1  0.681379  0  0.325142  0.39951  0  0.90613  0
H  H31  1  0.87636694  0.21047426  0.77081418  1  0.655822  0  0.312041  0.365669  0  0.974136  0
H  H32  1  0.25946385  0.64178351  0.38716585  1  0.650105  0  0.31146  0.357377  0  0.983587  0
H  H33  1  0.25546961  0.87645557  0.72033612  1  0.649264  0  0.309994  0.359932  0  0.981276  0
H  H34  1  0.92527501  0.35669988  0.76477295  1  0.640065  0  0.308704  0.353315  0  0.953729  0
H  H35  1  0.05174596  0.21588698  0.82040888  1  0.607454  0  0.322214  0.341477  0  0.918796  0
C  C36  1  0.98547014  0.70698328  0.49004475  1  1.569856  0  0.242726  0.642656  0  4.086362  0
C  C37  1  0.30002570  0.00551876  0.20191814  1  1.550026  0  0.243702  0.64765  0  4.078509  0
C  C38  1  0.99628424  0.31059298  0.49136856  1  1.566016  0  0.241401  0.644022  0  4.082767  0
C  C39  1  0.69085110  0.99760667  0.80689658  1  1.534369  0  0.243112  0.646761  0  4.08245  0
C  C40  1  0.98300499  0.69825164  0.81082767  1  1.53852  0  0.245557  0.661694  0  4.065028  0
C  C41  1  0.69627867  0.99987755  0.49246826  1  1.574172  0  0.241346  0.640298  0  4.094417  0
C  C42  1  0.99460300  0.30660061  0.20320533  1  1.509619  0  0.244543  0.656913  0  4.065266  0
C  C43  1  0.30273939  0.98634890  0.51169022  1  1.541112  0  0.244609  0.641145  0  4.055777  0
C  C44  1  0.30020128  0.69577743  0.49811653  1  1.542331  0  0.24744  0.648918  0  4.051731  0
C  C45  1  0.97821715  0.99933639  0.81866710  1  1.558258  0  0.242953  0.639942  0  4.067763  0
C  C46  1  0.69724261  0.30937609  0.50272343  1  1.535049  0  0.24265  0.642823  0  4.090983  0
C  C47  1  0.99136891  0.99136318  0.20650762  1  1.552252  0  0.241999  0.6399  0  4.095594  0
C  C48  1  0.99093610  0.42212350  0.47347962  1  -0.006293  0  -0.004517  -0.04263  0  3.909319  0
C  C49  1  0.98042871  0.61525463  0.47800988  1  0.012042  0  -0.003394  -0.018196  0  3.933024  0
C  C50  1  0.07722022  0.46874581  0.39770891  1  -0.135605  0  -0.005494  -0.095741  0  3.881863  0
C  C51  1  0.89056175  0.57597852  0.54561732  1  -0.039529  0  -0.060831  -0.059217  0  3.924654  0
C  C52  1  0.07099349  0.56405368  0.40145387  1  -0.006082  0  -0.06913  -0.09561  0  3.925165  0
C  C53  1  0.89661566  0.48044190  0.54251865  1  -0.028513  0  -0.068663  -0.071606  0  3.927  0
C  C54  1  0.39712049  0.01349614  0.09620991  1  0.053323  0  -0.0005  -0.036717  0  3.898205  0
C  C55  1  0.58755989  0.00245683  0.90572253  1  -0.069641  0  -0.007439  -0.029744  0  3.963444  0
C  C56  1  0.44198560  0.10156799  0.03468496  1  -0.184444  0  -0.001664  -0.082679  0  3.845807  0
C  C57  1  0.54168853  0.91748804  0.96333032  1  -0.049561  0  -0.062037  -0.063878  0  3.922222  0
C  C58  1  0.53660168  0.09437482  0.94049323  1  0.031559  0  -0.068887  -0.095117  0  3.927011  0
C  C59  1  0.44725618  0.92403880  0.05737505  1  -0.050835  0  -0.068513  -0.07483  0  3.907219  0
C  C60  1  0.96906261  0.99577509  0.92597391  1  0.011089  0  -0.007319  -0.050901  0  3.902868  0
C  C61  1  0.98087152  0.98474383  0.11525864  1  0.071005  0  -0.001622  -0.014113  0  3.934941  0
C  C62  1  0.89081885  0.07611331  0.97953432  1  -0.186603  0  -0.007856  -0.103808  0  3.92212  0
C  C63  1  0.05621892  0.90251529  0.06630281  1  0.012277  0  -0.059595  -0.06224  0  3.903984  0
C  C64  1  0.89698860  0.06889454  0.07337194  1  -0.025631  0  -0.06687  -0.089995  0  3.947931  0
C  C65  1  0.04903321  0.90828713  0.97350774  1  -0.016747  0  -0.067394  -0.068849  0  3.912175  0
C  C66  1  0.40386939  0.59680909  0.49353559  1  -0.030043  0  -0.002916  -0.047602  0  3.896859  0
C  C67  1  0.59676703  0.41022092  0.50185502  1  0.014968  0  -0.006448  -0.024452  0  3.959777  0
C  C68  1  0.46002041  0.54382561  0.41254498  1  -0.197473  0  -0.006585  -0.098147  0  3.904283  0
C  C69  1  0.54212686  0.46058326  0.58282605  1  -0.0391  0  -0.061641  -0.066649  0  3.909858  0
C  C70  1  0.55518451  0.45234995  0.41766725  1  0.001094  0  -0.070605  -0.100864  0  3.95112  0
C  C71  1  0.44703991  0.55294317  0.57768951  1  -0.003462  0  -0.06417  -0.064492  0  3.892859  0
C  C72  1  0.98610160  0.59530573  0.90974038  1  -0.037595  0  -0.009871  -0.079707  0  3.938553  0
C  C73  1  0.98251126  0.49935168  0.91183528  1  0.023429  0  -0.001102  0.067533  0  3.969621  0
C  C74  1  0.00052657  0.59260393  0.99648851  1  0.001057  0  -0.083175  -0.092724  0  3.987942  0
C  C75  1  0.97327721  0.49594618  0.82285694  1  0.035041  0  -0.104622  -0.237332  0  3.960878  0
C  C76  1  0.98714319  0.39711653  0.82211667  1  0.446014  0  0.065044  0.199225  0  4.098478  0
C  C77  1  0.99889281  0.40365208  0.09814696  1  -0.023407  0  -0.00828  -0.071104  0  3.916057  0
C  C78  1  0.00407431  0.49782957  0.09199171  1  -0.009654  0  -0.082781  -0.089814  0  3.976085  0
C  C79  1  0.99550574  0.39949240  0.00581093  1  0.027957  0  0.003608  0.077939  0  3.972215  0
C  C80  1  0.01391585  0.29835367  0.00019646  1  0.056925  0  -0.10681  -0.239329  0  3.965578  0
C  C81  1  0.01652787  0.29613439  0.90740251  1  0.448648  0  0.072708  0.211065  0  4.115045  0
C  C82  1  0.40909799  0.97881723  0.50807451  1  -0.051172  0  -0.005559  -0.048911  0  3.894685  0
C  C83  1  0.59963632  0.99286304  0.49199799  1  -0.034078  0  -0.004013  -0.019866  0  3.947914  0
C  C84  1  0.45826391  0.90515767  0.59156770  1  -0.134059  0  -0.008238  -0.101001  0  3.910158  0
C  C85  1  0.55531873  0.06268545  0.40673355  1  -0.042046  0  -0.058875  -0.062045  0  3.897131  0
C  C86  1  0.55156321  0.91362869  0.58256868  1  -0.005749  0  -0.073031  -0.104693  0  3.952944  0
C  C87  1  0.46150296  0.05488857  0.41535817  1  0.063892  0  -0.064101  -0.063893  0  3.882314  0
S  S88  1  0.20159001  0.41900824  0.29107677  1  3.099364  0  0.550148  1.159763  0  5.969115  0
S  S89  1  0.39840689  0.22556707  0.06433537  1  3.102992  0  0.544177  1.175382  0  5.957805  0
S  S90  1  0.78001312  0.19626096  0.93831559  1  3.053747  0  0.543106  1.145242  0  5.966467  0
S  S91  1  0.42454622  0.57844012  0.29675467  1  3.132939  0  0.539893  1.152397  0  6.020995  0
S  S92  1  0.41904820  0.79081492  0.71197616  1  3.100041  0  0.535544  1.152045  0  6.027992  0
O  O93  1  0.91019366  0.74134876  0.57106593  1  -1.183129  0  -0.345301  -0.610795  0  2.272828  0
O  O94  1  0.26032722  0.07707171  0.24832320  1  -1.172711  0  -0.364477  -0.620276  0  2.380589  0
O  O95  1  0.08233560  0.25671833  0.42856543  1  -1.203959  0  -0.362147  -0.64546  0  2.404601  0
O  O96  1  0.72847317  0.92099369  0.76742322  1  -1.174319  0  -0.353816  -0.61497  0  2.270028  0
O  O97  1  0.05800156  0.74048318  0.77257500  1  -1.172242  0  -0.365607  -0.627693  0  2.265416  0
O  O98  1  0.73256371  0.08015198  0.41793454  1  -1.170316  0  -0.346298  -0.608603  0  2.250466  0
O  O99  1  0.91870757  0.26583944  0.24139039  1  -1.170693  0  -0.359996  -0.61859  0  2.283544  0
O  O100  1  0.25301172  0.91616270  0.59341696  1  -1.197847  0  -0.348253  -0.635159  0  2.358505  0
O  O101  1  0.25588102  0.73446940  0.42496266  1  -1.184859  0  -0.352996  -0.636694  0  2.385272  0
O  O102  1  0.91295222  0.08434249  0.76728996  1  -1.202351  0  -0.349988  -0.635377  0  2.38373  0
O  O103  1  0.73461040  0.26853902  0.58092416  1  -1.175071  0  -0.358206  -0.616838  0  2.274791  0
O  O104  1  0.07302718  0.91943328  0.23906584  1  -1.175288  0  -0.350389  -0.609808  0  2.268066  0
O  O105  1  0.05174106  0.92031561  0.78187440  1  -1.181482  0  -0.328712  -0.589851  0  2.274594  0
O  O106  1  0.73786167  0.26948720  0.42591953  1  -1.172511  0  -0.347986  -0.605249  0  2.287335  0
O  O107  1  0.91877982  0.07150664  0.24304981  1  -1.181702  0  -0.350447  -0.61283  0  2.309036  0
O  O108  1  0.25995508  0.73594305  0.57411822  1  -1.165546  0  -0.330989  -0.58591  0  2.259159  0
O  O109  1  0.90904208  0.73753655  0.76899965  1  -1.172435  0  -0.347103  -0.610387  0  2.272527  0
O  O110  1  0.26496668  0.06380892  0.43512115  1  -1.185941  0  -0.324874  -0.585425  0  2.281743  0
O  O111  1  0.06480526  0.27001974  0.24869336  1  -1.164869  0  -0.34549  -0.605532  0  2.308266  0
O  O112  1  0.73421725  0.92453464  0.57045521  1  -1.182936  0  -0.355221  -0.616088  0  2.301575  0
O  O113  1  0.73444151  0.07163159  0.76739527  1  -1.167912  0  -0.357548  -0.608179  0  2.307977  0
O  O114  1  0.06766562  0.74196545  0.41992915  1  -1.186633  0  -0.35462  -0.61663  0  2.313049  0
O  O115  1  0.26190670  0.92762629  0.24018180  1  -1.167699  0  -0.34508  -0.603958  0  2.275982  0
O  O116  1  0.91816221  0.27332218  0.56954291  1  -1.188198  0  -0.336121  -0.603246  0  2.269798  0
O  O117  1  0.79172310  0.06911643  0.56846658  1  -1.249165  0  -0.693703  -1.070676  0  2.366277  0
O  O118  1  0.05918940  0.06365398  0.57431195  1  -1.232827  0  -0.702047  -1.079266  0  2.392808  0
O  O119  1  0.06369964  0.06862307  0.30100973  1  -1.229051  0  -0.69673  -1.073775  0  2.37834  0
O  O120  1  0.05766176  0.79743551  0.57073348  1  -1.249252  0  -0.694181  -1.073872  0  2.365352  0
O  O121  1  0.14326950  0.94753901  0.45623151  1  -1.199767  0  -0.792038  -1.14484  0  2.124836  0
O  O122  1  0.94538446  0.95218592  0.45180175  1  -1.198334  0  -0.79042  -1.150577  0  2.130176  0
O  O123  1  0.94595963  0.14862491  0.45412768  1  -1.192885  0  -0.79421  -1.146563  0  2.141256  0
O  O124  1  0.94065093  0.95020001  0.65248902  1  -1.192556  0  -0.790274  -1.143361  0  2.131106  0
O  O125  1  0.26823999  0.30348859  0.36095353  1  -1.228088  0  -0.352466  -0.512203  0  2.207963  0
O  O126  1  0.26547421  0.49025983  0.23884725  1  -1.252113  0  -0.285064  -0.473478  0  2.159189  0
O  O127  1  0.17126416  0.40216450  0.22374045  1  -1.303054  0  -0.303445  -0.557503  0  2.285244  0
O  O128  1  0.27216764  0.27926684  0.07304360  1  -1.254179  0  -0.369049  -0.555516  0  2.23797  0
O  O129  1  0.45698997  0.29664261  0.96598691  1  -1.286626  0  -0.309744  -0.516445  0  2.130353  0
O  O130  1  0.40586014  0.19542983  0.16968117  1  -1.290118  0  -0.315263  -0.544516  0  2.176022  0
O  O131  1  0.84583501  0.26189116  0.81258220  1  -1.234962  0  -0.365736  -0.562314  0  2.242827  0
O  O132  1  0.73837948  0.26689389  0.00009357  1  -1.263094  0  -0.290744  -0.480559  0  2.109318  0
O  O133  1  0.70862902  0.16077094  0.93470399  1  -1.266857  0  -0.287429  -0.49895  0  2.220184  0
O  O134  1  0.30001803  0.57956176  0.35652074  1  -1.231261  0  -0.358382  -0.520203  0  2.262509  0
O  O135  1  0.48688552  0.48624120  0.25696599  1  -1.283311  0  -0.297055  -0.488777  0  2.115653  0
O  O136  1  0.42991883  0.68769823  0.22189172  1  -1.30317  0  -0.309493  -0.536807  0  2.195537  0
O  O137  1  0.29240204  0.84791663  0.77460362  1  -1.240518  0  -0.365032  -0.53247  0  2.218131  0
O  O138  1  0.47615289  0.75501049  0.78404706  1  -1.28149  0  -0.306232  -0.503451  0  2.105646  0
O  O139  1  0.42935703  0.71320249  0.67303967  1  -1.285637  0  -0.308904  -0.534273  0  2.177657  0
O  O140  1  0.98156698  0.39086041  0.73532876  1  -1.167311  0  -0.372827  -0.476591  0  2.310279  0
O  O141  1  0.04771729  0.19776421  0.89530898  1  -1.131204  0  -0.348583  -0.422358  0  2.334483  0
