# generated using pymatgen
data_Cu2H9C14SN5
_symmetry_space_group_name_H-M   'P 1'
_cell_length_a   5.54201089
_cell_length_b   7.86759084
_cell_length_c   15.58728240
_cell_angle_alpha   90.00003044
_cell_angle_beta   89.99958976
_cell_angle_gamma   95.79465905
_symmetry_Int_Tables_number   1
_chemical_formula_structural   Cu2H9C14SN5
_chemical_formula_sum   'Cu4 H18 C28 S2 N10'
_cell_volume   676.16807942
_cell_formula_units_Z   2
loop_
 _symmetry_equiv_pos_site_id
 _symmetry_equiv_pos_as_xyz
  1  'x, y, z'
loop_
 _atom_site_type_symbol
 _atom_site_label
 _atom_site_symmetry_multiplicity
 _atom_site_fract_x
 _atom_site_fract_y
 _atom_site_fract_z
 _atom_site_occupancy
 _atom_site_hle17_bader_spin_density
 _atom_site_hle17_ddec_charge
 _atom_site_hle17_ddec_spin_density
 _atom_site_hle17_ddec_sum_bond_order
 _atom_site_hle17_magmom
 _atom_site_hse06_10hf_bader_spin_density
 _atom_site_hse06_10hf_ddec_charge
 _atom_site_hse06_10hf_ddec_spin_density
 _atom_site_hse06_10hf_ddec_sum_bond_order
 _atom_site_hse06_10hf_magmom
 _atom_site_hse06_bader_spin_density
 _atom_site_hse06_ddec_charge
 _atom_site_hse06_ddec_spin_density
 _atom_site_hse06_ddec_sum_bond_order
 _atom_site_hse06_magmom
 _atom_site_pbe_bader_spin_density
 _atom_site_pbe_cm5_charge
 _atom_site_pbe_ddec_charge
 _atom_site_pbe_ddec_spin_density
 _atom_site_pbe_ddec_sum_bond_order
 _atom_site_pbe_magmom
Cu  Cu0  1  0.01497492  0.72346458  0.19551131  1  0  0.428003  0  2.154807  0  0  0.325088  0  2.658565  0  0  0.317736  0  2.61641  0  0  0.544367  0.334405  0  2.683725  0
Cu  Cu1  1  0.01497999  0.22345860  0.80448981  1  0  0.428017  0  2.154956  0  0  0.325132  0  2.658741  0  0  0.317711  0  2.616567  0  0  0.544355  0.3344  0  2.683869  0
Cu  Cu2  1  0.17099215  0.74528159  0.37623923  1  0  0.382892  0  1.879873  0  0  0.252494  0  2.353849  0  0  0.260347  0  2.308766  0  0  0.487549  0.250659  0  2.381625  0
Cu  Cu3  1  0.17099757  0.24527558  0.62376152  1  0  0.382939  0  1.879736  0  0  0.252553  0  2.353695  0  0  0.260432  0  2.308624  0  0  0.487565  0.250728  0  2.381476  0
H  H4  1  0.59050540  0.25494756  0.06441786  1  0  0.10058  0  0.963147  0  0  0.1132  0  1.022247  0  0  0.115867  0  1.022242  0  0  0.104619  0.111276  0  1.022461  0
H  H5  1  0.59052138  0.75493928  0.93558256  1  0  0.100556  0  0.963235  0  0  0.113159  0  1.022343  0  0  0.115826  0  1.022341  0  0  0.104593  0.111238  0  1.022552  0
H  H6  1  0.46565705  0.30061930  0.91380148  1  0  0.074975  0  0.952261  0  0  0.084471  0  1.01707  0  0  0.086628  0  1.015592  0  0  0.111173  0.082822  0  1.018259  0
H  H7  1  0.46567109  0.80061733  0.08619923  1  0  0.07491  0  0.952301  0  0  0.084485  0  1.017048  0  0  0.086641  0  1.01557  0  0  0.111192  0.082837  0  1.018237  0
H  H8  1  0.79006186  0.03776268  0.95355273  1  0  0.071026  0  0.953289  0  0  0.079283  0  1.020196  0  0  0.081696  0  1.018165  0  0  0.109045  0.077554  0  1.021676  0
H  H9  1  0.79006834  0.53777489  0.04644978  1  0  0.071023  0  0.953481  0  0  0.079262  0  1.020402  0  0  0.081669  0  1.018379  0  0  0.109082  0.07754  0  1.021878  0
H  H10  1  0.88436529  0.98166139  0.10701444  1  0  0.103055  0  0.964344  0  0  0.107403  0  1.040626  0  0  0.113228  0  1.03528  0  0  0.099792  0.103119  0  1.044629  0
H  H11  1  0.88437446  0.48165921  0.89299236  1  0  0.103035  0  0.964399  0  0  0.107397  0  1.040649  0  0  0.113223  0  1.0353  0  0  0.099819  0.103116  0  1.044647  0
H  H12  1  0.64583299  0.25389525  0.21663741  1  0  0.128802  0  0.960601  0  0  0.142555  0  1.016307  0  0  0.144833  0  1.016424  0  0  0.105832  0.140916  0  1.016374  0
H  H13  1  0.64583653  0.75388967  0.78336096  1  0  0.128875  0  0.960517  0  0  0.142583  0  1.016272  0  0  0.14486  0  1.016391  0  0  0.105843  0.140946  0  1.016338  0
H  H14  1  0.96724594  0.21057653  0.31283020  1  0  0.116577  0  0.956948  0  0  0.127715  0  1.01495  0  0  0.130514  0  1.015438  0  0  0.103918  0.125685  0  1.014798  0
H  H15  1  0.96724914  0.71056710  0.68716935  1  0  0.11667  0  0.956849  0  0  0.127684  0  1.014975  0  0  0.130516  0  1.015421  0  0  0.103901  0.125654  0  1.014824  0
H  H16  1  0.21959209  0.28359808  0.43888832  1  0  0.067071  0  0.966203  0  0  0.076902  0  1.033959  0  0  0.078848  0  1.032287  0  0  0.105621  0.075478  0  1.035195  0
H  H17  1  0.21959689  0.78359246  0.56111104  1  0  0.067063  0  0.966096  0  0  0.076886  0  1.033881  0  0  0.078852  0  1.03219  0  0  0.105611  0.075464  0  1.035125  0
H  H18  1  0.69269874  0.05578779  0.60431557  1  0  0.076257  0  0.962303  0  0  0.08581  0  1.026601  0  0  0.087961  0  1.024736  0  0  0.108223  0.084114  0  1.028198  0
H  H19  1  0.69270039  0.55578475  0.39568332  1  0  0.076248  0  0.962382  0  0  0.085804  0  1.026668  0  0  0.087958  0  1.024801  0  0  0.10822  0.084107  0  1.028263  0
H  H20  1  0.41335785  0.97738980  0.48304590  1  0  0.093066  0  0.98804  0  0  0.098397  0  1.065991  0  0  0.103694  0  1.060767  0  0  0.095819  0.094603  0  1.069709  0
H  H21  1  0.41336676  0.47737990  0.51695366  1  0  0.093015  0  0.988095  0  0  0.098405  0  1.065978  0  0  0.103702  0  1.060752  0  0  0.095838  0.094612  0  1.069695  0
C  C22  1  0.40991112  0.20539861  0.04290823  1  0  -0.164459  0  3.711661  0  0  -0.180006  0  3.95431  0  0  -0.18836  0  3.975607  0  0  -0.088859  -0.17464  0  3.940252  0
C  C23  1  0.40992144  0.70539169  0.95709774  1  0  -0.16421  0  3.711725  0  0  -0.179723  0  3.954386  0  0  -0.188078  0  3.975688  0  0  -0.08865  -0.174356  0  3.940319  0
C  C24  1  0.34181165  0.23049705  0.95868180  1  0  0.121337  0  3.724796  0  0  0.092772  0  3.974897  0  0  0.098993  0  3.993034  0  0  0.035173  0.088651  0  3.962978  0
C  C25  1  0.34180521  0.73050687  0.04132112  1  0  0.121229  0  3.724861  0  0  0.092562  0  3.975023  0  0  0.098785  0  3.993165  0  0  0.034961  0.088446  0  3.963109  0
C  C26  1  0.96626371  0.08296440  0.98086197  1  0  0.113608  0  3.722546  0  0  0.087714  0  3.970564  0  0  0.094015  0  3.987296  0  0  0.033206  0.083315  0  3.959999  0
C  C27  1  0.96625984  0.58296522  0.01913565  1  0  0.113551  0  3.722704  0  0  0.087659  0  3.970766  0  0  0.09396  0  3.987499  0  0  0.033181  0.083243  0  3.960243  0
C  C28  1  0.01920488  0.05235634  0.06609489  1  0  -0.160873  0  3.717791  0  0  -0.178846  0  3.966689  0  0  -0.186049  0  3.984847  0  0  -0.090509  -0.174293  0  3.954933  0
C  C29  1  0.01920980  0.55235716  0.93390493  1  0  -0.160679  0  3.717804  0  0  -0.17865  0  3.96669  0  0  -0.185849  0  3.984848  0  0  -0.090519  -0.174092  0  3.954926  0
C  C30  1  0.24981073  0.11011126  0.09894384  1  0  0.092456  0  3.794217  0  0  0.102828  0  4.025407  0  0  0.110063  0  4.044618  0  0  0.009657  0.097735  0  4.012571  0
C  C31  1  0.24981933  0.61010819  0.90106058  1  0  0.092276  0  3.794486  0  0  0.102608  0  4.02568  0  0  0.109837  0  4.044896  0  0  0.009578  0.097521  0  4.012829  0
C  C32  1  0.32618731  0.06824318  0.18476179  1  0  0.123952  0  3.820701  0  0  0.120013  0  4.076224  0  0  0.120834  0  4.098194  0  0  0.073752  0.119877  0  4.061302  0
C  C33  1  0.32618785  0.56824532  0.81523860  1  0  0.123787  0  3.820977  0  0  0.119965  0  4.076328  0  0  0.120787  0  4.098298  0  0  0.073718  0.119825  0  4.061407  0
C  C34  1  0.52099739  0.14380224  0.23339416  1  0  -0.258624  0  3.710216  0  0  -0.288348  0  3.967063  0  0  -0.295625  0  3.990822  0  0  -0.113558  -0.283613  0  3.950883  0
C  C35  1  0.52099884  0.64379284  0.76660706  1  0  -0.258715  0  3.710299  0  0  -0.288443  0  3.967137  0  0  -0.295724  0  3.990899  0  0  -0.113597  -0.283711  0  3.950964  0
C  C36  1  0.50786106  0.05573181  0.31176190  1  0  0.130559  0  3.818734  0  0  0.126332  0  4.065802  0  0  0.12674  0  4.089805  0  0  0.077333  0.126347  0  4.049594  0
C  C37  1  0.50785133  0.55573151  0.68823485  1  0  0.130658  0  3.81871  0  0  0.126448  0  4.065767  0  0  0.126854  0  4.089772  0  0  0.077391  0.126459  0  4.049562  0
C  C38  1  0.66281666  0.08885444  0.38607231  1  0  0.096842  0  3.773917  0  0  0.109483  0  4.000864  0  0  0.118825  0  4.017661  0  0  0.012553  0.103018  0  3.989652  0
C  C39  1  0.66280791  0.58885028  0.61392794  1  0  0.096873  0  3.773803  0  0  0.109451  0  4.000788  0  0  0.118788  0  4.017598  0  0  0.012577  0.10299  0  3.989575  0
C  C40  1  0.89581594  0.17549029  0.37611135  1  0  -0.141824  0  3.691503  0  0  -0.160681  0  3.93666  0  0  -0.167956  0  3.954926  0  0  -0.085017  -0.15614  0  3.924875  0
C  C41  1  0.89581396  0.67548476  0.62388515  1  0  -0.142004  0  3.691594  0  0  -0.160669  0  3.936665  0  0  -0.167984  0  3.954949  0  0  -0.085003  -0.156127  0  3.924875  0
C  C42  1  0.03997206  0.21553240  0.44695600  1  0  0.112268  0  3.725935  0  0  0.081422  0  3.976722  0  0  0.089655  0  3.992991  0  0  0.029121  0.075201  0  3.967445  0
C  C43  1  0.03997523  0.71552679  0.55303928  1  0  0.112214  0  3.725919  0  0  0.081351  0  3.976693  0  0  0.089584  0  3.992919  0  0  0.029091  0.075124  0  3.967421  0
C  C44  1  0.74694417  0.08778431  0.53859206  1  0  0.11464  0  3.709114  0  0  0.088152  0  3.949455  0  0  0.096243  0  3.96655  0  0  0.030572  0.082025  0  3.939665  0
C  C45  1  0.74693833  0.58777753  0.46140414  1  0  0.114595  0  3.709205  0  0  0.088108  0  3.949576  0  0  0.096199  0  3.966654  0  0  0.030572  0.081981  0  3.939783  0
C  C46  1  0.59218044  0.04360661  0.47050276  1  0  -0.167168  0  3.72672  0  0  -0.183486  0  3.974328  0  0  -0.191583  0  3.992043  0  0  -0.091322  -0.178306  0  3.962921  0
C  C47  1  0.59218212  0.54359974  0.52949701  1  0  -0.167168  0  3.726695  0  0  -0.183522  0  3.974333  0  0  -0.191615  0  3.992046  0  0  -0.091376  -0.178346  0  3.962926  0
C  C48  1  0.49837699  0.58455359  0.24243810  1  0  0.288948  0  3.961515  0  0  0.275045  0  4.256405  0  0  0.29232  0  4.269987  0  0  0.138021  0.2635  0  4.246874  0
C  C49  1  0.49836211  0.08455171  0.75756060  1  0  0.288729  0  3.961216  0  0  0.27483  0  4.256125  0  0  0.292109  0  4.269702  0  0  0.137778  0.263281  0  4.246584  0
S  S50  1  0.23192495  0.51549081  0.28135347  1  0  -0.324637  0  2.543354  0  0  -0.286823  0  2.956176  0  0  -0.296076  0  2.935958  0  0  -0.163972  -0.280522  0  2.968767  0
S  S51  1  0.23193773  0.01548729  0.71864842  1  0  -0.324553  0  2.543765  0  0  -0.286738  0  2.956584  0  0  -0.295976  0  2.936373  0  0  -0.163911  -0.280432  0  2.969171  0
N  N52  1  0.20786275  0.93725208  0.23116643  1  0  -0.254093  0  3.287661  0  0  -0.202406  0  3.591527  0  0  -0.206568  0  3.598667  0  0  -0.290954  -0.2006  0  3.587111  0
N  N53  1  0.20786743  0.43724994  0.76883424  1  0  -0.254021  0  3.287514  0  0  -0.202375  0  3.591353  0  0  -0.206519  0  3.598467  0  0  -0.290904  -0.200555  0  3.586911  0
N  N54  1  0.31601605  0.93214823  0.30872698  1  0  -0.250539  0  3.359985  0  0  -0.180347  0  3.657452  0  0  -0.190599  0  3.668673  0  0  -0.300025  -0.174223  0  3.650178  0
N  N55  1  0.31601999  0.43214225  0.69127345  1  0  -0.250524  0  3.360074  0  0  -0.180332  0  3.657555  0  0  -0.190588  0  3.668781  0  0  -0.300065  -0.17421  0  3.650281  0
N  N56  1  0.12385808  0.16932044  0.92654623  1  0  -0.302501  0  3.352519  0  0  -0.233016  0  3.639998  0  0  -0.242921  0  3.649307  0  0  -0.360443  -0.227162  0  3.633788  0
N  N57  1  0.12384720  0.66931879  0.07345398  1  0  -0.302376  0  3.352436  0  0  -0.232869  0  3.639917  0  0  -0.242785  0  3.649248  0  0  -0.360322  -0.227034  0  3.633739  0
N  N58  1  0.96968913  0.17448400  0.52832253  1  0  -0.30452  0  3.436259  0  0  -0.219423  0  3.731099  0  0  -0.23265  0  3.738672  0  0  -0.387414  -0.211042  0  3.725386  0
N  N59  1  0.96968191  0.67448108  0.47167187  1  0  -0.304315  0  3.436145  0  0  -0.219228  0  3.730996  0  0  -0.232437  0  3.738551  0  0  -0.387379  -0.210843  0  3.725273  0
N  N60  1  0.69155490  0.63716302  0.21581104  1  0  -0.507726  0  3.157689  0  0  -0.463775  0  3.505636  0  0  -0.470739  0  3.498851  0  0  -0.443279  -0.459824  0  3.509418  0
N  N61  1  0.69156891  0.13716460  0.78419427  1  0  -0.507645  0  3.157062  0  0  -0.463708  0  3.505053  0  0  -0.470654  0  3.498238  0  0  -0.443132  -0.459741  0  3.50881  0
