# generated using pymatgen
data_PrH16C8Cl3O2
_symmetry_space_group_name_H-M   'P 1'
_cell_length_a   8.18752236
_cell_length_b   8.61942306
_cell_length_c   9.78076865
_cell_angle_alpha   79.46859760
_cell_angle_beta   70.05789183
_cell_angle_gamma   82.24998866
_symmetry_Int_Tables_number   1
_chemical_formula_structural   PrH16C8Cl3O2
_chemical_formula_sum   'Pr2 H32 C16 Cl6 O4'
_cell_volume   635.96036169
_cell_formula_units_Z   2
loop_
 _symmetry_equiv_pos_site_id
 _symmetry_equiv_pos_as_xyz
  1  'x, y, z'
loop_
 _atom_site_type_symbol
 _atom_site_label
 _atom_site_symmetry_multiplicity
 _atom_site_fract_x
 _atom_site_fract_y
 _atom_site_fract_z
 _atom_site_occupancy
 _atom_site_hle17_bader_spin_density
 _atom_site_hle17_ddec_charge
 _atom_site_hle17_ddec_spin_density
 _atom_site_hle17_ddec_sum_bond_order
 _atom_site_hle17_magmom
 _atom_site_hse06_10hf_bader_spin_density
 _atom_site_hse06_10hf_ddec_charge
 _atom_site_hse06_10hf_ddec_spin_density
 _atom_site_hse06_10hf_ddec_sum_bond_order
 _atom_site_hse06_10hf_magmom
 _atom_site_hse06_bader_spin_density
 _atom_site_hse06_ddec_charge
 _atom_site_hse06_ddec_spin_density
 _atom_site_hse06_ddec_sum_bond_order
 _atom_site_hse06_magmom
 _atom_site_pbe_bader_spin_density
 _atom_site_pbe_cm5_charge
 _atom_site_pbe_ddec_charge
 _atom_site_pbe_ddec_spin_density
 _atom_site_pbe_ddec_sum_bond_order
 _atom_site_pbe_magmom
Pr  Pr0  1  0.99432510  0.23655577  0.07782906  1  0  2.019085  0  1.868381  0  0  1.846849  0  2.37993  0  0  1.89704  0  2.312552  0  0  1.058264  1.810936  0  2.427439  0
Pr  Pr1  1  0.00568511  0.76345290  0.92216268  1  0  2.019127  0  1.868452  0  0  1.846924  0  2.379957  0  0  1.897119  0  2.312565  0  0  1.05827  1.81101  0  2.427471  0
H  H2  1  0.42913969  0.07283598  0.79127232  1  0  0.059478  0  0.925998  0  0  0.074914  0  0.986908  0  0  0.075505  0  0.986502  0  0  0.099632  0.074426  0  0.987275  0
H  H3  1  0.57086303  0.92716777  0.20873246  1  0  0.059414  0  0.925997  0  0  0.074889  0  0.986881  0  0  0.075483  0  0.986478  0  0  0.099629  0.074403  0  0.98725  0
H  H4  1  0.23536023  0.17131124  0.76185114  1  0  0.048995  0  0.970112  0  0  0.060849  0  1.045432  0  0  0.060543  0  1.046052  0  0  0.106035  0.061037  0  1.044876  0
H  H5  1  0.76463883  0.82870775  0.23815870  1  0  0.048896  0  0.970164  0  0  0.060761  0  1.045519  0  0  0.060447  0  1.046154  0  0  0.106022  0.060966  0  1.044953  0
H  H6  1  0.54819127  0.26705953  0.56787702  1  0  0.084186  0  0.957554  0  0  0.10081  0  1.02095  0  0  0.101715  0  1.021237  0  0  0.090725  0.099874  0  1.021192  0
H  H7  1  0.45180649  0.73294103  0.43212039  1  0  0.084163  0  0.957473  0  0  0.100788  0  1.020873  0  0  0.101693  0  1.021158  0  0  0.090716  0.099852  0  1.021115  0
H  H8  1  0.37897303  0.41310227  0.63831716  1  0  0.082367  0  0.929784  0  0  0.100588  0  0.987624  0  0  0.101587  0  0.988065  0  0  0.093903  0.099781  0  0.987419  0
H  H9  1  0.62103164  0.58691081  0.36168884  1  0  0.082392  0  0.92984  0  0  0.100574  0  0.98772  0  0  0.101569  0  0.988167  0  0  0.093943  0.09977  0  0.987513  0
H  H10  1  0.69442955  0.29472262  0.73910567  1  0  0.076163  0  0.963075  0  0  0.092164  0  1.027692  0  0  0.092742  0  1.028685  0  0  0.081618  0.091626  0  1.027036  0
H  H11  1  0.30557374  0.70527325  0.26088673  1  0  0.07613  0  0.963079  0  0  0.09215  0  1.0277  0  0  0.092716  0  1.028703  0  0  0.081617  0.091615  0  1.027043  0
H  H12  1  0.59422106  0.49050044  0.72064881  1  0  0.084333  0  0.949697  0  0  0.10176  0  1.010184  0  0  0.102708  0  1.010622  0  0  0.088073  0.101018  0  1.009961  0
H  H13  1  0.40579590  0.50950459  0.27934153  1  0  0.084303  0  0.949549  0  0  0.101705  0  1.010115  0  0  0.102654  0  1.010545  0  0  0.088059  0.100964  0  1.00989  0
H  H14  1  0.52325864  0.25766978  0.98475855  1  0  0.059383  0  0.935263  0  0  0.06961  0  1.003517  0  0  0.07053  0  1.002331  0  0  0.095583  0.06869  0  1.004835  0
H  H15  1  0.47675693  0.74233638  0.01523406  1  0  0.059416  0  0.935288  0  0  0.069624  0  1.003514  0  0  0.070539  0  1.002327  0  0  0.095609  0.068705  0  1.00483  0
H  H16  1  0.39715812  0.44290272  0.96348479  1  0  0.057714  0  0.964064  0  0  0.068167  0  1.035055  0  0  0.068411  0  1.035144  0  0  0.098818  0.067857  0  1.035157  0
H  H17  1  0.60286623  0.55710782  0.03651189  1  0  0.057842  0  0.964007  0  0  0.068248  0  1.035026  0  0  0.068487  0  1.035115  0  0  0.098832  0.067936  0  1.035127  0
H  H18  1  0.86472675  0.17662056  0.52238295  1  0  0.053419  0  0.939378  0  0  0.068545  0  1.004481  0  0  0.068725  0  1.004366  0  0  0.099438  0.068368  0  1.00437  0
H  H19  1  0.13526093  0.82337557  0.47761281  1  0  0.05335  0  0.939376  0  0  0.068462  0  1.004537  0  0  0.068641  0  1.004423  0  0  0.099384  0.068287  0  1.004422  0
H  H20  1  0.88747931  0.36653801  0.40960252  1  0  0.05732  0  0.956664  0  0  0.068163  0  1.028702  0  0  0.068784  0  1.027889  0  0  0.098985  0.067455  0  1.029479  0
H  H21  1  0.11251113  0.63345548  0.59040102  1  0  0.057336  0  0.956478  0  0  0.068186  0  1.028551  0  0  0.068802  0  1.02774  0  0  0.099008  0.067466  0  1.029338  0
H  H22  1  0.03715599  0.29315254  0.62938741  1  0  0.091733  0  0.96398  0  0  0.107276  0  1.028318  0  0  0.108041  0  1.028967  0  0  0.088025  0.106705  0  1.027888  0
H  H23  1  0.96282794  0.70684108  0.37061693  1  0  0.091738  0  0.964057  0  0  0.107254  0  1.028402  0  0  0.108016  0  1.029053  0  0  0.08806  0.106686  0  1.027967  0
H  H24  1  0.15066648  0.40128028  0.45637771  1  0  0.077537  0  0.936583  0  0  0.098447  0  0.993077  0  0  0.098709  0  0.994502  0  0  0.093085  0.098054  0  0.992373  0
H  H25  1  0.84932827  0.59870732  0.54362235  1  0  0.077537  0  0.936577  0  0  0.098454  0  0.993079  0  0  0.098721  0  0.994506  0  0  0.093067  0.098063  0  0.992376  0
H  H26  1  0.18581172  0.04082499  0.54861967  1  0  0.077993  0  0.95678  0  0  0.089772  0  1.027262  0  0  0.091227  0  1.026988  0  0  0.091784  0.088741  0  1.027445  0
H  H27  1  0.81416970  0.95916757  0.45138246  1  0  0.078122  0  0.956666  0  0  0.089804  0  1.027254  0  0  0.091246  0  1.026985  0  0  0.091799  0.088777  0  1.027433  0
H  H28  1  0.35850546  0.16929764  0.47369949  1  0  0.092521  0  0.956944  0  0  0.113399  0  1.01095  0  0  0.113936  0  1.012059  0  0  0.091929  0.112813  0  1.010465  0
H  H29  1  0.64147790  0.83068522  0.52631059  1  0  0.092478  0  0.957044  0  0  0.113395  0  1.010999  0  0  0.113937  0  1.012097  0  0  0.091891  0.112811  0  1.010522  0
H  H30  1  0.27184844  0.01911274  0.28609675  1  0  0.063398  0  0.943679  0  0  0.078102  0  1.008455  0  0  0.078612  0  1.007623  0  0  0.099502  0.077699  0  1.009018  0
H  H31  1  0.72813322  0.98087612  0.71391094  1  0  0.063373  0  0.943774  0  0  0.078041  0  1.008544  0  0  0.07855  0  1.007713  0  0  0.099486  0.077644  0  1.0091  0
H  H32  1  0.32144140  0.22242215  0.23669888  1  0  0.056666  0  0.939641  0  0  0.068302  0  1.009727  0  0  0.069106  0  1.009009  0  0  0.097898  0.067409  0  1.010841  0
H  H33  1  0.67855180  0.77756877  0.76330934  1  0  0.056577  0  0.939734  0  0  0.068202  0  1.009801  0  0  0.069007  0  1.009083  0  0  0.097849  0.067311  0  1.010915  0
C  C34  1  0.35608094  0.18889746  0.78035663  1  0  0.089586  0  3.612381  0  0  0.032126  0  3.880188  0  0  0.039435  0  3.886977  0  0  -0.068884  0.027267  0  3.875222  0
C  C35  1  0.64392528  0.81111224  0.21964326  1  0  0.089766  0  3.612296  0  0  0.032255  0  3.88015  0  0  0.039554  0  3.886964  0  0  -0.068889  0.027381  0  3.875182  0
C  C36  1  0.46481626  0.31321279  0.66851351  1  0  -0.14492  0  3.666746  0  0  -0.182601  0  3.921082  0  0  -0.184605  0  3.933852  0  0  -0.168192  -0.180968  0  3.912335  0
C  C37  1  0.53518686  0.68678529  0.33148375  1  0  -0.144934  0  3.666788  0  0  -0.182593  0  3.921183  0  0  -0.184587  0  3.933953  0  0  -0.168219  -0.180961  0  3.912442  0
C  C38  1  0.56924849  0.36519837  0.75430307  1  0  -0.141402  0  3.633642  0  0  -0.181595  0  3.888261  0  0  -0.183838  0  3.901287  0  0  -0.172495  -0.179812  0  3.879098  0
C  C39  1  0.43076325  0.63480658  0.24569386  1  0  -0.141223  0  3.633483  0  0  -0.18146  0  3.888109  0  0  -0.183696  0  3.901136  0  0  -0.172416  -0.179679  0  3.878943  0
C  C40  1  0.45404326  0.33448695  0.91589700  1  0  0.106991  0  3.52918  0  0  0.053913  0  3.790466  0  0  0.061735  0  3.79556  0  0  -0.065459  0.048626  0  3.787128  0
C  C41  1  0.54597353  0.66552026  0.08409921  1  0  0.106866  0  3.529135  0  0  0.053918  0  3.790286  0  0  0.061761  0  3.79535  0  0  -0.065396  0.048633  0  3.786947  0
C  C42  1  0.95827869  0.25902045  0.44656002  1  0  0.104654  0  3.569258  0  0  0.045753  0  3.837183  0  0  0.05378  0  3.842485  0  0  -0.069732  0.040571  0  3.833198  0
C  C43  1  0.04171045  0.74097315  0.55344080  1  0  0.104779  0  3.569137  0  0  0.045806  0  3.837175  0  0  0.053839  0  3.842478  0  0  -0.069739  0.040631  0  3.833192  0
C  C44  1  0.09369647  0.28864805  0.51105127  1  0  -0.146854  0  3.661293  0  0  -0.186729  0  3.916718  0  0  -0.188904  0  3.929977  0  0  -0.170808  -0.184986  0  3.907435  0
C  C45  1  0.90629527  0.71134544  0.48895087  1  0  -0.146865  0  3.661393  0  0  -0.186724  0  3.916841  0  0  -0.188904  0  3.930105  0  0  -0.170819  -0.184983  0  3.90756  0
C  C46  1  0.22971488  0.14917984  0.47281557  1  0  -0.147545  0  3.667516  0  0  -0.185127  0  3.918619  0  0  -0.187389  0  3.931524  0  0  -0.169133  -0.18341  0  3.909682  0
C  C47  1  0.77027206  0.85080776  0.52719079  1  0  -0.147685  0  3.667592  0  0  -0.185241  0  3.918646  0  0  -0.187489  0  3.931536  0  0  -0.169114  -0.183528  0  3.909721  0
C  C48  1  0.23523501  0.13755354  0.31836425  1  0  0.096754  0  3.570038  0  0  0.038879  0  3.838657  0  0  0.046726  0  3.843659  0  0  -0.072054  0.033608  0  3.835471  0
C  C49  1  0.76475811  0.86243869  0.68163972  1  0  0.097058  0  3.570159  0  0  0.039305  0  3.838573  0  0  0.047154  0  3.843574  0  0  -0.071867  0.034023  0  3.835401  0
Cl  Cl50  1  0.92954305  0.47632734  0.86059790  1  0  -0.692688  0  0.949473  0  0  -0.642932  0  1.227325  0  0  -0.656924  0  1.204333  0  0  -0.315783  -0.632517  0  1.243715  0
Cl  Cl51  1  0.07046219  0.52367780  0.13939778  1  0  -0.692662  0  0.949399  0  0  -0.642887  0  1.227184  0  0  -0.656879  0  1.204191  0  0  -0.315781  -0.632475  0  1.243577  0
Cl  Cl52  1  0.66585977  0.24538648  0.25850406  1  0  -0.676228  0  0.759219  0  0  -0.630689  0  1.003873  0  0  -0.645467  0  0.984146  0  0  -0.358967  -0.619742  0  1.017928  0
Cl  Cl53  1  0.33414402  0.75462124  0.74148554  1  0  -0.676227  0  0.759275  0  0  -0.630705  0  1.003954  0  0  -0.645486  0  0.984226  0  0  -0.358977  -0.619758  0  1.018004  0
Cl  Cl54  1  0.87759363  0.08370366  0.89495969  1  0  -0.704772  0  0.945867  0  0  -0.656076  0  1.220407  0  0  -0.670102  0  1.196957  0  0  -0.319707  -0.646137  0  1.236588  0
Cl  Cl55  1  0.12241145  0.91630390  0.10503365  1  0  -0.704778  0  0.945893  0  0  -0.656104  0  1.220461  0  0  -0.670129  0  1.197007  0  0  -0.319704  -0.646166  0  1.236647  0
O  O56  1  0.30689313  0.25237994  0.91846081  1  0  -0.447093  0  2.312344  0  0  -0.361779  0  2.568012  0  0  -0.381594  0  2.568248  0  0  -0.310736  -0.347776  0  2.567517  0
O  O57  1  0.69312357  0.74762823  0.08154246  1  0  -0.447274  0  2.312457  0  0  -0.361994  0  2.568154  0  0  -0.381808  0  2.568376  0  0  -0.310896  -0.347994  0  2.567676  0
O  O58  1  0.05598612  0.18138710  0.31742237  1  0  -0.438791  0  2.29847  0  0  -0.350847  0  2.550871  0  0  -0.370764  0  2.552151  0  0  -0.311342  -0.337203  0  2.549737  0
O  O59  1  0.94400904  0.81861355  0.68257372  1  0  -0.438997  0  2.298638  0  0  -0.35105  0  2.55106  0  0  -0.370969  0  2.552339  0  0  -0.311428  -0.337402  0  2.549927  0
