# generated using pymatgen
data_CoH19C25N5O6
_symmetry_space_group_name_H-M   'P 1'
_cell_length_a   9.64410889
_cell_length_b   11.47433683
_cell_length_c   11.62500000
_cell_angle_alpha   64.18716104
_cell_angle_beta   89.82990260
_cell_angle_gamma   77.48054569
_symmetry_Int_Tables_number   1
_chemical_formula_structural   CoH19C25N5O6
_chemical_formula_sum   'Co2 H38 C50 N10 O12'
_cell_volume   1124.39270050
_cell_formula_units_Z   2
loop_
 _symmetry_equiv_pos_site_id
 _symmetry_equiv_pos_as_xyz
  1  'x, y, z'
loop_
 _atom_site_type_symbol
 _atom_site_label
 _atom_site_symmetry_multiplicity
 _atom_site_fract_x
 _atom_site_fract_y
 _atom_site_fract_z
 _atom_site_occupancy
 _atom_site_hle17_ddec_charge
 _atom_site_hle17_ddec_spin_density
 _atom_site_hle17_ddec_sum_bond_order
 _atom_site_hle17_magmom
 _atom_site_hse06_10hf_ddec_charge
 _atom_site_hse06_10hf_ddec_spin_density
 _atom_site_hse06_10hf_ddec_sum_bond_order
 _atom_site_hse06_10hf_magmom
 _atom_site_hse06_ddec_charge
 _atom_site_hse06_ddec_spin_density
 _atom_site_hse06_ddec_sum_bond_order
 _atom_site_hse06_magmom
 _atom_site_pbe_bader_charge
 _atom_site_pbe_bader_spin_density
 _atom_site_pbe_cm5_charge
 _atom_site_pbe_ddec_charge
 _atom_site_pbe_ddec_spin_density
 _atom_site_pbe_ddec_sum_bond_order
 _atom_site_pbe_magmom
Co  Co0  1  0.12029324  0.32422633  0.12412154  1  1.000623  -2.831786  1.950274  -2.544  0.947811  -2.830475  2.396265  -2.601  1.035004  -2.873693  2.314708  -2.688  1.222076  -2.577449  0.68158  0.875957  -2.786797  2.462463  -2.521
Co  Co1  1  0.87971171  0.67577496  0.87587583  1  1.000712  -2.831786  1.950119  -2.544  0.947845  -2.83048  2.396162  -2.601  1.035028  -2.873695  2.314604  -2.688  1.222017  -2.577445  0.681593  0.875967  -2.786769  2.462356  -2.521
H  H2  1  0.95479269  0.36597057  0.86658524  1  0.120167  0.000251  0.985679  -0.001  0.127131  0.000179  1.049773  0.0  0.130406  0.000199  1.045103  0.0  0.24895  -0.000527  0.140668  0.124445  0.000144  1.053765  -0.001
H  H3  1  0.04521769  0.63402573  0.13340737  1  0.120076  0.000251  0.985781  -0.001  0.127065  0.000179  1.049841  0.0  0.130328  0.000199  1.045178  0.0  0.248848  -0.000527  0.140625  0.124371  0.000144  1.053835  -0.001
H  H4  1  0.19185532  0.91722971  0.87785629  1  0.115091  -0.000155  0.979699  0.0  0.124328  -9.6e-05  1.044887  0.0  0.127722  -5.6e-05  1.042259  0.0  0.100415  -0.000442  0.103224  0.12188  -0.000143  1.046787  0.0
H  H5  1  0.80815090  0.08276261  0.12214665  1  0.11504  -0.000155  0.979691  0.0  0.124298  -9.6e-05  1.044861  0.0  0.127669  -5.6e-05  1.042266  0.0  0.100406  -0.000441  0.103199  0.121861  -0.000142  1.046744  0.0
H  H6  1  0.39930301  0.77629877  0.03474440  1  0.091628  0.000148  0.951821  0.0  0.105432  3.6e-05  1.007866  0.0  0.10747  3e-05  1.008134  0.0  0.093206  -2.7e-05  0.099621  0.103864  2e-05  1.007897  0.0
H  H7  1  0.60069568  0.22369056  0.96526844  1  0.091623  0.000147  0.951839  0.0  0.105444  3.6e-05  1.007873  0.0  0.107484  3e-05  1.00814  0.0  0.093285  -2.7e-05  0.099623  0.103879  2e-05  1.007898  0.0
H  H8  1  0.49778347  0.84918418  0.18250722  1  0.082844  6e-06  0.968075  0.0  0.092665  3.1e-05  1.030476  0.0  0.094412  2.7e-05  1.03105  0.0  0.053965  1.4e-05  0.094346  0.091587  4.2e-05  1.029797  0.0
H  H9  1  0.50220356  0.15080614  0.81750866  1  0.082756  6e-06  0.968125  0.0  0.092599  3.1e-05  1.030501  0.0  0.094347  2.6e-05  1.031075  0.0  0.0539  1.4e-05  0.094301  0.091522  4.2e-05  1.029817  0.0
H  H10  1  0.38297901  0.06700756  0.18082536  1  0.110439  -3.7e-05  0.952042  0.0  0.12198  -0.000185  1.011351  0.0  0.124639  -0.000116  1.010374  0.0  0.076549  -0.000541  0.107327  0.120033  -0.000253  1.012343  0.0
H  H11  1  0.61701062  0.93298476  0.81918536  1  0.110442  -3.9e-05  0.952075  0.0  0.122024  -0.000185  1.011327  0.0  0.124654  -0.000116  1.010389  0.0  0.076499  -0.000541  0.107304  0.120074  -0.000254  1.012321  0.0
H  H12  1  0.86581964  0.27225990  0.74531680  1  0.089457  2e-05  0.913503  0.0  0.107889  9e-06  0.970956  0.0  0.108448  1e-05  0.970827  0.0  0.094147  -6.6e-05  0.119759  0.107339  2e-06  0.971177  0.0
H  H13  1  0.13418633  0.72773741  0.25468056  1  0.089497  2e-05  0.91351  0.0  0.107944  9e-06  0.97093  0.0  0.108503  1e-05  0.970798  0.0  0.094042  -6.6e-05  0.119749  0.107391  2e-06  0.971154  0.0
H  H14  1  0.90377591  0.09637889  0.81894588  1  0.061698  -4.2e-05  0.963926  0.0  0.072456  -4.2e-05  1.038048  0.0  0.071847  -2.1e-05  1.040629  0.0  0.065251  -0.000303  0.102857  0.072835  -6.7e-05  1.036241  0.0
H  H15  1  0.09622823  0.90361343  0.18105363  1  0.061768  -4.2e-05  0.963976  0.0  0.072496  -4.2e-05  1.038117  0.0  0.071884  -2.1e-05  1.040699  0.0  0.064932  -0.000303  0.102854  0.072872  -6.7e-05  1.036311  0.0
H  H16  1  0.05784043  0.27548549  0.60311011  1  0.108446  -3e-06  0.916975  0.0  0.129395  -1e-06  0.966149  0.0  0.130331  -1e-06  0.966382  0.0  0.110257  -2e-05  0.109805  0.1287  -0.0  0.966134  0.0
H  H17  1  0.94216194  0.72451780  0.39688383  1  0.108365  -2e-06  0.916925  0.0  0.129337  -1e-06  0.96613  0.0  0.130278  -1e-06  0.96636  0.0  0.11031  -2e-05  0.109778  0.128643  -0.0  0.966114  0.0
H  H18  1  0.11397455  0.10142916  0.67608998  1  0.080417  -2e-06  0.962197  0.0  0.094352  6e-06  1.031528  0.0  0.094474  6e-06  1.033971  0.0  0.071603  -2.3e-05  0.096166  0.094159  7e-06  1.030065  0.0
H  H19  1  0.88602860  0.89857512  0.32390353  1  0.080387  -1e-06  0.96216  0.0  0.09438  6e-06  1.031478  0.0  0.094504  6e-06  1.03392  0.0  0.071609  -2.3e-05  0.096158  0.094186  7e-06  1.030016  0.0
H  H20  1  0.81341558  0.25787286  0.53712431  1  0.077848  -0.000133  0.903409  0.0  0.09771  -0.000155  0.958467  0.0  0.097547  -0.000109  0.958917  0.0  0.076469  -0.000495  0.113776  0.097861  -0.00021  0.958107  0.0
H  H21  1  0.18658652  0.74212743  0.46287779  1  0.077821  -0.000132  0.903419  0.0  0.097727  -0.000155  0.95846  0.0  0.097564  -0.000109  0.958908  0.0  0.076466  -0.000495  0.113787  0.097881  -0.00021  0.9581  0.0
H  H22  1  0.95963926  0.20855770  0.46207459  1  0.084119  0.000147  0.920757  0.0  0.100327  8.2e-05  0.980046  0.0  0.100302  9.8e-05  0.981201  0.0  0.069816  -0.000124  0.114786  0.100341  6.5e-05  0.97925  0.0
H  H23  1  0.04036126  0.79143661  0.53792407  1  0.08409  0.000147  0.920766  0.0  0.100349  8.2e-05  0.980024  0.0  0.100324  9.8e-05  0.981179  0.0  0.069875  -0.000125  0.11477  0.100368  6.5e-05  0.979225  0.0
H  H24  1  0.00162582  0.92416847  0.77704841  1  0.096988  -8.6e-05  0.963689  -0.001  0.105299  -0.000164  1.031029  0.0  0.108012  -0.000114  1.026725  0.0  0.147127  -0.000711  0.137754  0.103339  -0.000205  1.033982  -0.001
H  H25  1  0.99838171  0.07582684  0.22295067  1  0.097011  -8.7e-05  0.963708  -0.001  0.1053  -0.000163  1.031052  0.0  0.108014  -0.000114  1.026744  0.0  0.146973  -0.00071  0.137784  0.103339  -0.000204  1.034008  -0.001
H  H26  1  0.68979345  0.73655369  0.59012517  1  0.114022  5.3e-05  0.976175  0.0  0.120858  1.4e-05  1.042162  0.0  0.123779  2.9e-05  1.040382  0.0  0.145567  -0.000211  0.10468  0.118655  -6e-06  1.043639  0.0
H  H27  1  0.31021411  0.26344960  0.40986015  1  0.113855  5.2e-05  0.976149  0.0  0.120789  1.4e-05  1.042037  0.0  0.123688  2.9e-05  1.040287  0.0  0.145755  -0.00021  0.104661  0.118624  -5e-06  1.043468  0.0
H  H28  1  0.54960818  0.88253491  0.37993053  1  0.087029  1e-05  0.972054  0.0  0.095644  1.1e-05  1.037784  0.0  0.098313  9e-06  1.036743  0.0  0.060263  6e-06  0.094836  0.093388  2e-05  1.039403  0.0
H  H29  1  0.45040250  0.11747237  0.62005996  1  0.087053  8e-06  0.97215  0.0  0.09566  1.2e-05  1.037884  0.0  0.098329  1e-05  1.036842  0.0  0.06397  5e-06  0.094825  0.093414  1.9e-05  1.039489  0.0
H  H30  1  0.56254145  0.11956925  0.25731696  1  0.088365  0.000114  0.956389  0.0  0.101838  9e-05  1.014594  0.0  0.104215  9.1e-05  1.013799  0.0  0.063294  1.9e-05  0.099659  0.10009  7.8e-05  1.015055  0.0
H  H31  1  0.43745860  0.88043902  0.74268172  1  0.088371  0.000112  0.95638  0.0  0.101847  9e-05  1.014579  0.0  0.104226  9e-05  1.013779  0.0  0.063185  1.8e-05  0.099687  0.100114  7.7e-05  1.015025  0.0
H  H32  1  0.71470761  0.21632604  0.34612187  1  0.096115  -0.000153  1.000866  0.0  0.105422  -0.000106  1.067032  0.0  0.106819  -7.1e-05  1.068487  0.0  0.097736  -0.000422  0.098428  0.10458  -0.000125  1.065584  0.0
H  H33  1  0.28528676  0.78368821  0.65388199  1  0.095987  -0.000154  1.001024  0.0  0.105359  -0.000106  1.067135  0.0  0.106754  -7e-05  1.068593  0.0  0.097835  -0.000423  0.098445  0.104525  -0.000125  1.065681  0.0
H  H34  1  0.37078290  0.56788066  0.32483701  1  0.120478  -5.7e-05  0.951722  0.0  0.120682  5.7e-05  1.027124  0.0  0.125823  3.3e-05  1.02157  0.0  0.152014  -3.2e-05  0.113558  0.116846  4.5e-05  1.031217  0.0
H  H35  1  0.62921867  0.43211764  0.67516595  1  0.120477  -5.7e-05  0.951749  0.0  0.120678  5.6e-05  1.027157  0.0  0.125819  3.3e-05  1.021605  0.0  0.151999  -3.3e-05  0.113554  0.116834  4.5e-05  1.031251  0.0
H  H36  1  0.81875747  0.52684236  0.26754702  1  0.13202  -2e-06  0.935348  0.0  0.13679  9.4e-05  1.000232  0.0  0.141413  0.000116  0.995788  0.0  0.124763  -0.000214  0.118501  0.133447  5.1e-05  1.003241  0.0
H  H37  1  0.18124174  0.47314896  0.73245637  1  0.131952  -2e-06  0.935453  0.0  0.136706  9.4e-05  1.000345  0.0  0.141334  0.000116  0.995912  0.0  0.124736  -0.000214  0.118437  0.133355  5.1e-05  1.003353  0.0
H  H38  1  0.55404528  0.37251648  0.09873995  1  0.112874  -6.7e-05  0.939586  0.0  0.12082  -3.3e-05  1.005135  0.0  0.125016  3e-05  1.001356  0.0  0.121964  -0.000453  0.112892  0.117604  -0.000122  1.008273  0.0
H  H39  1  0.44594778  0.62749478  0.90124800  1  0.112854  -6.4e-05  0.939426  0.0  0.120785  -3.3e-05  1.005018  0.0  0.124983  3e-05  1.001232  0.0  0.121689  -0.000453  0.112838  0.117558  -0.000122  1.008166  0.0
C  C40  1  0.03898826  0.27429297  0.90829789  1  0.227227  0.008171  3.597328  0.005  0.164878  -0.001541  3.872064  -0.003  0.185783  -0.0012  3.879501  -0.002  0.982034  -0.002729  0.169001  0.149492  -0.001673  3.867524  -0.003
C  C41  1  0.96101641  0.72570134  0.09169818  1  0.227241  0.008172  3.597145  0.005  0.164938  -0.00154  3.871877  -0.003  0.185851  -0.001199  3.879303  -0.002  0.982135  -0.002729  0.169045  0.149548  -0.001673  3.867347  -0.003
C  C42  1  0.16971030  0.07583980  0.93921569  1  0.091868  -0.002786  3.772905  -0.004  0.082858  -0.001526  4.012896  -0.002  0.086506  -0.001098  4.034944  -0.002  0.284342  -0.00388  0.087113  0.080691  -0.001977  3.997536  -0.003
C  C43  1  0.83029332  0.92415053  0.06078897  1  0.091888  -0.002781  3.772971  -0.004  0.082911  -0.001526  4.012999  -0.002  0.086559  -0.001097  4.035047  -0.002  0.285181  -0.00388  0.087075  0.080738  -0.001977  3.997648  -0.003
C  C44  1  0.23126352  0.95293258  0.94101495  1  -0.14742  0.001733  3.746711  0.001  -0.168826  0.000222  4.002705  0.0  -0.170964  0.000373  4.021714  0.0  0.035083  -0.00012  -0.097393  -0.16715  9.4e-05  3.989586  0.0
C  C45  1  0.76874426  0.04706173  0.05898283  1  -0.147369  0.001717  3.746701  0.001  -0.16879  0.000223  4.002709  0.0  -0.170916  0.000371  4.021738  0.0  0.034245  -0.00012  -0.097316  -0.16713  9.5e-05  3.989588  0.0
C  C46  1  0.34901006  0.87272352  0.03092700  1  -0.06579  -0.001773  3.771953  -0.002  -0.080954  -0.000471  4.025586  -0.001  -0.083548  -0.000349  4.048782  -0.001  -0.107412  -0.001425  -0.095823  -0.078818  -0.000683  4.009435  -0.001
C  C47  1  0.65098837  0.12726680  0.96907940  1  -0.065807  -0.001767  3.771756  -0.002  -0.080996  -0.000472  4.025413  -0.001  -0.083589  -0.000349  4.048604  -0.001  -0.107066  -0.001427  -0.095864  -0.078863  -0.000684  4.009262  -0.001
C  C48  1  0.40362029  0.91329220  0.11590791  1  -0.075965  0.003213  3.801923  0.002  -0.093193  0.000823  4.060617  0.0  -0.095177  0.000768  4.084398  0.0  -0.02607  0.000717  -0.100641  -0.091495  0.000916  4.043695  0.001
C  C49  1  0.59636752  0.08669912  0.88410067  1  -0.075805  0.003201  3.80164  0.002  -0.093042  0.000827  4.060345  0.0  -0.095023  0.000772  4.084114  0.0  -0.026172  0.000716  -0.100563  -0.091346  0.000915  4.043419  0.001
C  C50  1  0.34135242  0.03498695  0.11528441  1  -0.144219  -0.002243  3.752659  -0.003  -0.164589  -0.000863  4.004329  -0.001  -0.16761  -0.000633  4.024661  -0.001  0.033848  -0.002411  -0.094681  -0.162605  -0.001178  3.990605  -0.001
C  C51  1  0.65864110  0.96500636  0.88472415  1  -0.144263  -0.002232  3.752538  -0.003  -0.164677  -0.000865  4.004231  -0.001  -0.167678  -0.000635  4.02457  -0.001  0.033846  -0.002411  -0.094638  -0.162697  -0.001179  3.990508  -0.001
C  C52  1  0.22309503  0.11658595  0.02578097  1  0.135122  0.002276  3.842542  0.001  0.137877  -0.000957  4.088269  -0.002  0.141945  -0.000475  4.113128  -0.001  0.329644  -0.002874  0.08243  0.134612  -0.001479  4.071021  -0.002
C  C53  1  0.77690109  0.88340936  0.97422501  1  0.135089  0.002264  3.842514  0.001  0.137831  -0.000957  4.088241  -0.002  0.141896  -0.000475  4.113093  -0.001  0.329671  -0.002874  0.082354  0.134561  -0.00148  4.070997  -0.002
C  C54  1  0.95175122  0.18211981  0.77123653  1  0.012639  -0.000398  3.619386  -0.001  -0.0505  -0.00034  3.879094  0.0  -0.046019  -0.000246  3.891258  0.0  0.286371  -0.000722  -0.049636  -0.053379  -0.000444  3.870687  -0.001
C  C55  1  0.04825241  0.81787450  0.22875954  1  0.012405  -0.0004  3.619705  -0.001  -0.05064  -0.00034  3.879455  0.0  -0.046152  -0.000246  3.891624  0.0  0.286652  -0.000722  -0.049619  -0.053517  -0.000444  3.871053  -0.001
C  C56  1  0.01913828  0.18424362  0.65124001  1  -0.163344  -1e-06  3.672455  0.0  -0.206085  -4.9e-05  3.933569  0.0  -0.208268  -1.8e-05  3.946462  0.0  -0.054702  -0.000205  -0.159889  -0.204626  -8.8e-05  3.924966  0.0
C  C57  1  0.98086305  0.81575967  0.34875307  1  -0.16312  -1e-06  3.672274  0.0  -0.206007  -4.9e-05  3.933563  0.0  -0.208202  -1.8e-05  3.94647  0.0  -0.054684  -0.000204  -0.15986  -0.204547  -8.7e-05  3.924961  0.0
C  C58  1  0.91428740  0.18280880  0.55446236  1  0.028144  -0.000396  3.600826  -0.001  -0.033178  -0.000368  3.860812  0.0  -0.0279  -0.000264  3.871523  0.0  0.291827  -0.000787  -0.043859  -0.036782  -0.000482  3.853612  -0.001
C  C59  1  0.08571237  0.81719249  0.44553589  1  0.028142  -0.000395  3.600647  -0.001  -0.03327  -0.000369  3.860787  0.0  -0.027991  -0.000264  3.871504  0.0  0.291725  -0.000786  -0.043865  -0.036875  -0.000482  3.853577  -0.001
C  C60  1  0.92407813  0.93828331  0.70218366  1  0.196558  0.010521  3.673415  0.007  0.133974  -0.000346  3.954945  -0.001  0.153525  -0.000353  3.965  -0.001  0.998371  -0.000886  0.155771  0.120674  6e-06  3.947395  -0.001
C  C61  1  0.07592137  0.06171500  0.29781673  1  0.19651  0.010529  3.67334  0.007  0.13395  -0.000346  3.954897  -0.001  0.153504  -0.000352  3.96495  -0.001  0.99855  -0.000884  0.155735  0.120649  8e-06  3.94735  -0.001
C  C62  1  0.77620396  0.89617512  0.59162271  1  0.143711  0.000834  3.806665  0.0  0.146221  -0.001405  4.053827  -0.002  0.15027  -0.001038  4.077402  -0.002  0.371735  -0.003038  0.085306  0.142736  -0.001731  4.038516  -0.003
C  C63  1  0.22380177  0.10382717  0.40837508  1  0.14356  0.000814  3.806831  0.0  0.14612  -0.001404  4.053912  -0.002  0.150171  -0.001038  4.077479  -0.002  0.371649  -0.003038  0.085257  0.14263  -0.001731  4.038623  -0.003
C  C64  1  0.69243937  0.84098011  0.54049491  1  -0.126765  -0.001329  3.715131  -0.002  -0.145948  -0.00019  3.964187  -0.001  -0.148402  -2.3e-05  3.984398  0.0  0.023814  -0.001163  -0.087444  -0.144517  -0.000415  3.951004  -0.001
C  C65  1  0.30755756  0.15902417  0.45950291  1  -0.126494  -0.001308  3.715082  -0.002  -0.145779  -0.00019  3.964169  -0.001  -0.148206  -2.3e-05  3.98437  0.0  0.023591  -0.001162  -0.087414  -0.144368  -0.000415  3.950958  -0.001
C  C66  1  0.61641333  0.92378360  0.42028634  1  -0.075564  0.00176  3.783554  0.001  -0.094406  5.8e-05  4.042738  0.0  -0.096986  2.6e-05  4.06567  0.0  -0.076684  0.000117  -0.09853  -0.09273  0.000163  4.027813  0.0
C  C67  1  0.38358310  0.07622667  0.57971407  1  -0.075742  0.001734  3.783592  0.001  -0.094592  5.7e-05  4.042815  0.0  -0.09717  2.7e-05  4.065742  0.0  -0.080385  0.000117  -0.098538  -0.092915  0.000163  4.027896  0.0
C  C68  1  0.62345066  0.05765883  0.35111045  1  -0.06934  -0.000913  3.785448  -0.001  -0.085139  0.0  4.041316  0.0  -0.086886  8.4e-05  4.063963  0.0  -0.028168  -0.000278  -0.094569  -0.083793  -0.000106  4.02552  0.0
C  C69  1  0.37654888  0.94235144  0.64888909  1  -0.069329  -0.000898  3.785345  -0.001  -0.085127  1e-06  4.041247  0.0  -0.086872  8.4e-05  4.06389  0.0  -0.027971  -0.000278  -0.094625  -0.083789  -0.000106  4.025444  0.0
C  C70  1  0.70781520  0.11352688  0.39984429  1  -0.144933  0.000534  3.76923  0.0  -0.166043  -0.000283  4.023863  0.0  -0.169167  -0.00018  4.045038  0.0  0.057689  -0.00076  -0.099875  -0.163507  -0.00039  4.009393  0.0
C  C71  1  0.29218616  0.88648439  0.60015654  1  -0.144658  0.000512  3.769244  0.0  -0.165859  -0.000283  4.023888  0.0  -0.168984  -0.00018  4.045064  0.0  0.057538  -0.00076  -0.099756  -0.163323  -0.000391  4.009416  0.0
C  C72  1  0.78306750  0.03080914  0.52028544  1  0.091702  -0.002297  3.790101  -0.003  0.082184  -0.001214  4.031046  -0.002  0.085833  -0.000823  4.053126  -0.001  0.206218  -0.003248  0.087354  0.07973  -0.0016  4.017113  -0.002
C  C73  1  0.21693487  0.96919415  0.47971538  1  0.091629  -0.00229  3.790226  -0.003  0.082151  -0.001215  4.031111  -0.002  0.085803  -0.000823  4.053186  -0.001  0.206268  -0.003248  0.087334  0.0797  -0.001599  4.017178  -0.002
C  C74  1  0.44619184  0.47211099  0.20577424  1  -0.054478  -0.004793  3.735309  -0.007  -0.02638  -0.001753  3.966305  -0.003  -0.036867  -0.001112  3.988592  -0.002  0.031933  -0.004157  -0.009765  -0.019976  -0.002066  3.952398  -0.003
C  C75  1  0.55380481  0.52789030  0.79423089  1  -0.054471  -0.004783  3.73523  -0.007  -0.026404  -0.00175  3.96621  -0.003  -0.036892  -0.00111  3.988501  -0.002  0.032067  -0.004156  -0.009782  -0.020012  -0.002066  3.95231  -0.003
C  C76  1  0.46192648  0.53612927  0.28137895  1  -0.078297  0.010283  3.7016  0.006  -0.121571  0.003414  3.964738  0.002  -0.116157  0.001977  3.979828  0.001  -0.002511  0.000646  -0.066382  -0.12421  0.001072  3.954264  0.0
C  C77  1  0.53807458  0.46387103  0.71862230  1  -0.078283  0.010257  3.701468  0.006  -0.121558  0.003409  3.96464  0.002  -0.116137  0.001972  3.979722  0.001  -0.002182  0.000639  -0.066387  -0.124201  0.001064  3.954171  0.0
C  C78  1  0.59599773  0.55370999  0.30290693  1  0.054158  -0.001591  3.726482  -0.003  0.050607  -9.7e-05  3.986984  0.0  0.044995  -0.000112  4.009531  0.0  0.17655  -0.000423  0.073653  0.053819  -0.000137  3.971673  0.0
C  C79  1  0.40399840  0.44628931  0.69709389  1  0.054084  -0.001582  3.726354  -0.003  0.050477  -9.5e-05  3.986919  0.0  0.044862  -0.000111  4.009472  0.0  0.176112  -0.000421  0.073618  0.053683  -0.000136  3.971603  0.0
C  C80  1  0.71488458  0.51220405  0.24919445  1  -0.086126  0.007107  3.661432  0.005  -0.125883  0.002801  3.915448  0.001  -0.120622  0.002051  3.929994  0.001  0.030428  -0.000154  -0.066923  -0.128021  0.00023  3.905151  0.0
C  C81  1  0.28511257  0.48779126  0.75080895  1  -0.085984  0.007094  3.661552  0.005  -0.12569  0.002796  3.915541  0.001  -0.120442  0.002049  3.930093  0.001  0.030929  -0.000163  -0.066865  -0.127832  0.000222  3.905245  0.0
C  C82  1  0.69840825  0.44774207  0.17403603  1  -0.041342  -0.004248  3.7246  -0.007  -0.014171  -0.001368  3.956962  -0.002  -0.022491  -0.000806  3.975465  -0.002  0.031075  -0.003714  -0.007438  -0.00971  -0.00163  3.94627  -0.003
C  C83  1  0.30158632  0.55225524  0.82596566  1  -0.041435  -0.00424  3.724627  -0.007  -0.014248  -0.001365  3.956952  -0.002  -0.022559  -0.000806  3.975445  -0.002  0.030658  -0.00371  -0.007428  -0.009794  -0.001628  3.946265  -0.003
C  C84  1  0.56460762  0.42706737  0.15359800  1  -0.02962  0.000442  3.637993  0.0  -0.07013  -0.001813  3.885145  -0.002  -0.064526  -0.001157  3.899638  -0.002  -0.068885  -0.000972  -0.055758  -0.075079  -0.000137  3.877707  -0.001
C  C85  1  0.43539344  0.57293292  0.84639981  1  -0.029564  0.000418  3.637712  0.0  -0.070064  -0.001815  3.884836  -0.002  -0.064466  -0.001158  3.899334  -0.002  -0.068354  -0.000983  -0.055738  -0.075021  -0.000146  3.877411  -0.001
C  C86  1  0.30308035  0.44635013  0.19035974  1  0.627989  0.006617  3.926895  0.006  0.584014  -0.001205  4.224358  -0.001  0.620119  -0.000884  4.220346  -0.001  1.553804  -0.001165  0.203888  0.558129  -0.00101  4.225975  0.0
C  C87  1  0.69692022  0.55366014  0.80963722  1  0.628055  0.00662  3.926975  0.006  0.584154  -0.001204  4.224305  -0.001  0.620259  -0.000884  4.220293  -0.001  1.553711  -0.001167  0.203916  0.558277  -0.001011  4.225912  0.0
C  C88  1  0.82608204  0.38704012  0.12693150  1  0.630178  0.006184  3.928666  0.006  0.584661  -0.001526  4.229936  -0.001  0.621196  -0.00083  4.225465  -0.001  1.566634  -0.002289  0.202434  0.558778  -0.002368  4.231206  -0.001
C  C89  1  0.17391567  0.61296516  0.87306503  1  0.630316  0.006184  3.928697  0.006  0.584776  -0.001525  4.229989  -0.001  0.621314  -0.00083  4.22551  -0.001  1.566604  -0.00229  0.202507  0.558892  -0.002368  4.231261  -0.001
N  N90  1  0.13800563  0.24068300  0.00408203  1  -0.441656  -0.04185  3.284967  -0.064  -0.401975  -0.030542  3.603745  -0.038  -0.433814  -0.023847  3.614967  -0.029  -1.215589  -0.069769  -0.366908  -0.377947  -0.036691  3.595969  -0.046
N  N91  1  0.86199154  0.75931630  0.99591708  1  -0.441686  -0.04185  3.284985  -0.064  -0.401964  -0.030542  3.603724  -0.038  -0.43379  -0.023846  3.614936  -0.029  -1.21564  -0.069764  -0.366909  -0.377927  -0.036688  3.595943  -0.046
N  N92  1  0.05288807  0.17914947  0.86616264  1  -0.117355  -0.001875  3.489006  -0.003  -0.028051  -0.001901  3.712425  -0.003  -0.044999  -0.001305  3.735395  -0.002  -1.242155  -0.00553  -0.240392  -0.016293  -0.002561  3.696728  -0.004
N  N93  1  0.94711762  0.82084085  0.13383772  1  -0.117236  -0.001875  3.488845  -0.003  -0.028076  -0.0019  3.712405  -0.003  -0.045024  -0.001305  3.735373  -0.002  -1.242382  -0.005528  -0.24037  -0.016317  -0.00256  3.696713  -0.004
N  N94  1  0.86539540  0.84146569  0.70654153  1  -0.443992  -0.04008  3.260129  -0.065  -0.405876  -0.029494  3.576869  -0.039  -0.435493  -0.023565  3.586168  -0.031  -1.203426  -0.066001  -0.359598  -0.383761  -0.034755  3.570551  -0.046
N  N95  1  0.13460748  0.15853560  0.29345326  1  -0.443942  -0.040081  3.259963  -0.065  -0.405857  -0.029494  3.576664  -0.039  -0.435482  -0.023566  3.585969  -0.031  -1.203423  -0.066004  -0.359603  -0.38375  -0.034758  3.570365  -0.046
N  N96  1  0.87774047  0.05407628  0.59340628  1  -0.11955  -0.001599  3.492469  -0.003  -0.031593  -0.002005  3.716358  -0.003  -0.047953  -0.001498  3.739019  -0.003  -1.245052  -0.005361  -0.241028  -0.020474  -0.002498  3.701253  -0.004
N  N97  1  0.12225956  0.94592402  0.40659669  1  -0.119495  -0.0016  3.492343  -0.003  -0.031524  -0.002005  3.716238  -0.003  -0.047885  -0.001498  3.738897  -0.003  -1.244905  -0.00536  -0.241011  -0.020401  -0.002497  3.701125  -0.004
N  N98  1  0.61321837  0.61366711  0.38885730  1  0.494808  0.001082  3.906097  0.001  0.522712  0.000118  4.205999  0.0  0.543699  1e-05  4.214223  0.0  0.348547  0.000756  0.052805  0.508421  0.00087  4.20084  0.001
N  N99  1  0.38678137  0.38632620  0.61114695  1  0.494798  0.001082  3.906109  0.001  0.522714  0.000117  4.206021  0.0  0.543704  1.1e-05  4.214243  0.0  0.348366  0.000723  0.052771  0.508418  0.00083  4.20086  0.001
O  O100  1  0.29655683  0.37967759  0.12541204  1  -0.623928  -0.056182  2.073411  -0.094  -0.588194  -0.040837  2.359825  -0.062  -0.631913  -0.029742  2.349186  -0.044  -1.135071  -0.101361  -0.325576  -0.552524  -0.051685  2.365207  -0.078
O  O101  1  0.70343391  0.62033467  0.87458237  1  -0.623978  -0.056176  2.07339  -0.094  -0.588297  -0.040834  2.359823  -0.062  -0.63201  -0.029739  2.349178  -0.044  -1.135143  -0.101342  -0.325649  -0.552634  -0.051678  2.365206  -0.078
O  O102  1  0.20134560  0.48537032  0.24208156  1  -0.589122  -0.003456  1.921841  -0.006  -0.555041  -0.004982  2.147824  -0.008  -0.578782  -0.003468  2.138224  -0.006  -1.173113  -0.012078  -0.313696  -0.53727  -0.005715  2.153776  -0.009
O  O103  1  0.79865215  0.51464693  0.75791155  1  -0.58921  -0.003457  1.921898  -0.006  -0.555094  -0.004981  2.147796  -0.008  -0.578838  -0.003468  2.138196  -0.006  -1.173319  -0.012078  -0.313691  -0.537333  -0.005716  2.153743  -0.009
O  O104  1  0.93571530  0.43811814  0.11816246  1  -0.636927  -0.057591  2.117722  -0.094  -0.607322  -0.044208  2.425044  -0.064  -0.652181  -0.032643  2.412614  -0.046  -1.136303  -0.1069  -0.318498  -0.57064  -0.055399  2.431765  -0.08
O  O105  1  0.06428447  0.56188315  0.88182460  1  -0.636995  -0.057594  2.117728  -0.094  -0.60737  -0.044208  2.425072  -0.064  -0.652231  -0.032643  2.412639  -0.046  -1.136118  -0.106896  -0.318553  -0.5707  -0.055396  2.431812  -0.08
O  O106  1  0.82235374  0.29026937  0.10506851  1  -0.60372  -0.00392  1.918315  -0.007  -0.564966  -0.005733  2.149974  -0.01  -0.590945  -0.004162  2.144534  -0.007  -1.168249  -0.016677  -0.312052  -0.544842  -0.008007  2.151971  -0.013
O  O107  1  0.17763957  0.70973691  0.89493104  1  -0.603804  -0.003919  1.918295  -0.007  -0.565051  -0.005734  2.149987  -0.01  -0.591034  -0.004162  2.144547  -0.007  -1.168366  -0.016679  -0.312114  -0.544931  -0.008008  2.151978  -0.013
O  O108  1  0.50385999  0.66065207  0.42670160  1  -0.372248  -0.000138  1.746492  0.0  -0.353975  1.2e-05  1.957011  0.0  -0.366609  -7e-06  1.954462  0.0  -0.481578  0.000253  -0.13276  -0.345738  0.000288  1.959066  0.0
O  O109  1  0.49614080  0.33934523  0.57330180  1  -0.372202  -0.000139  1.746549  0.0  -0.353968  1.2e-05  1.957045  0.0  -0.366606  -7e-06  1.954501  0.0  -0.481803  0.000235  -0.13276  -0.345759  0.000266  1.959109  0.0
O  O110  1  0.73604576  0.61425540  0.42009378  1  -0.353031  0.000508  1.727299  0.0  -0.334784  0.000215  1.924253  0.0  -0.345535  5.2e-05  1.920557  0.0  -0.47032  0.000607  -0.124764  -0.328024  0.000722  1.927206  0.0
O  O111  1  0.26395499  0.38572994  0.57991734  1  -0.353023  0.000512  1.727232  0.0  -0.334755  0.000215  1.924242  0.0  -0.345508  5.2e-05  1.920546  0.0  -0.470007  0.000589  -0.124762  -0.328017  0.000699  1.927197  0.0
