# generated using pymatgen
data_CdH14C24(NO2)2
_symmetry_space_group_name_H-M   'P 1'
_cell_length_a   7.81586015
_cell_length_b   14.23758143
_cell_length_c   14.23762951
_cell_angle_alpha   65.91952154
_cell_angle_beta   77.24521788
_cell_angle_gamma   77.24484600
_symmetry_Int_Tables_number   1
_chemical_formula_structural   CdH14C24(NO2)2
_chemical_formula_sum   'Cd2 H28 C48 N4 O8'
_cell_volume   1395.49378783
_cell_formula_units_Z   2
loop_
 _symmetry_equiv_pos_site_id
 _symmetry_equiv_pos_as_xyz
  1  'x, y, z'
loop_
 _atom_site_type_symbol
 _atom_site_label
 _atom_site_symmetry_multiplicity
 _atom_site_fract_x
 _atom_site_fract_y
 _atom_site_fract_z
 _atom_site_occupancy
 _atom_site_pbe_bader_charge
 _atom_site_pbe_bader_spin_density
 _atom_site_pbe_cm5_charge
 _atom_site_pbe_ddec_charge
 _atom_site_pbe_ddec_spin_density
 _atom_site_pbe_ddec_sum_bond_order
 _atom_site_pbe_magmom
Cd  Cd0  1  0.24920147  0.13394482  0.08204246  1  1.282982  0  0.780449  0.954433  0  2.062301  0
Cd  Cd1  1  0.74920244  0.08203856  0.13395066  1  1.282984  0  0.78049  0.954471  0  2.062417  0
H  H2  1  0.15489478  0.83819288  0.37735256  1  0.088179  0  0.105807  0.112535  0  0.991964  0
H  H3  1  0.65491167  0.37735364  0.83818708  1  0.088169  0  0.105748  0.112447  0  0.991975  0
H  H4  1  0.05414166  0.71642967  0.55369145  1  0.026248  0  0.095683  0.092953  0  1.018072  0
H  H5  1  0.55414084  0.55368894  0.71642726  1  0.026175  0  0.095692  0.092989  0  1.018048  0
H  H6  1  0.77488995  0.08620877  0.42924199  1  0.094192  0  0.100572  0.104463  0  0.998999  0
H  H7  1  0.27489473  0.42924059  0.08620227  1  0.094409  0  0.100555  0.104366  0  0.999039  0
H  H8  1  0.67860669  0.96500608  0.61101972  1  0.093147  0  0.10248  0.10229  0  1.024252  0
H  H9  1  0.17860039  0.61101115  0.96500312  1  0.093321  0  0.102442  0.102212  0  1.024419  0
H  H10  1  0.99315610  0.63019029  0.70249071  1  0.065318  0  0.100292  0.102125  0  1.044322  0
H  H11  1  0.49315440  0.70248720  0.63019484  1  0.065267  0  0.100292  0.102138  0  1.044398  0
H  H12  1  0.08147806  0.47811861  0.76334686  1  0.056448  0  0.106959  0.110321  0  1.005051  0
H  H13  1  0.58147774  0.76334784  0.47811560  1  0.056173  0  0.106984  0.110354  0  1.00512  0
H  H14  1  0.23048077  0.30069851  0.85690177  1  0.13103  0  0.121723  0.102399  0  0.996428  0
H  H15  1  0.73047629  0.85690837  0.30069502  1  0.131118  0  0.121761  0.102408  0  0.996417  0
H  H16  1  0.93992725  0.29264177  0.13947964  1  0.148773  0  0.118353  0.098557  0  1.004104  0
H  H17  1  0.43993091  0.13948282  0.29264659  1  0.148889  0  0.118347  0.098531  0  1.004226  0
H  H18  1  0.78583757  0.47196948  0.06067822  1  0.064599  0  0.109349  0.113463  0  1.001003  0
H  H19  1  0.28585092  0.06067788  0.47198277  1  0.064246  0  0.109362  0.113477  0  1.000955  0
H  H20  1  0.64924592  0.60466564  0.99002908  1  0.088877  0  0.103044  0.10463  0  1.044231  0
H  H21  1  0.14924506  0.99002908  0.60467152  1  0.088901  0  0.103057  0.104649  0  1.044239  0
H  H22  1  0.43002934  0.66337483  0.05710982  1  0.058139  0  0.096121  0.092038  0  1.023242  0
H  H23  1  0.93003107  0.05710370  0.66337272  1  0.058122  0  0.096096  0.092048  0  1.023304  0
H  H24  1  0.19157489  0.75433814  0.14904957  1  0.097038  0  0.101974  0.103809  0  0.997365  0
H  H25  1  0.69157259  0.14904563  0.75433161  1  0.097151  0  0.101936  0.103766  0  0.997405  0
H  H26  1  0.23046002  0.04149770  0.88551228  1  0.104672  0  0.10555  0.115579  0  0.996766  0
H  H27  1  0.73046001  0.88551425  0.04149535  1  0.104722  0  0.105553  0.11563  0  0.996713  0
H  H28  1  0.46958374  0.95025888  0.79108934  1  0.107723  0  0.102122  0.101087  0  1.021545  0
H  H29  1  0.96959132  0.79108973  0.95026271  1  0.107675  0  0.102132  0.101057  0  1.021509  0
C  C30  1  0.03237012  0.04209040  0.28459084  1  1.578975  0  0.196886  0.565409  0  4.225735  0
C  C31  1  0.53237449  0.28459423  0.04208949  1  1.578979  0  0.196847  0.565331  0  4.225583  0
C  C32  1  0.97250511  0.96984220  0.39273211  1  -0.070321  0  -0.017252  -0.026688  0  3.968492  0
C  C33  1  0.47251514  0.39273015  0.96983919  1  -0.070291  0  -0.01726  -0.026743  0  3.968862  0
C  C34  1  0.04952675  0.86508205  0.42891284  1  -0.026349  0  -0.08595  -0.093692  0  3.985731  0
C  C35  1  0.54953684  0.42890941  0.86507770  1  -0.026904  0  -0.085878  -0.093602  0  3.985725  0
C  C36  1  0.99155226  0.79740614  0.52832028  1  0.00581  0  -0.094446  -0.131186  0  3.999961  0
C  C37  1  0.49155532  0.52831953  0.79740182  1  0.005743  0  -0.094435  -0.131165  0  4.000016  0
C  C38  1  0.85824222  0.83270562  0.59577482  1  -0.070595  0  -0.008453  0.034982  0  3.97266  0
C  C39  1  0.35825171  0.59577192  0.83270161  1  -0.069903  0  -0.008508  0.034873  0  3.972712  0
C  C40  1  0.83712302  0.00523257  0.45856530  1  -0.034917  0  -0.088938  -0.102906  0  3.995819  0
C  C41  1  0.33713411  0.45856412  0.00522696  1  -0.035383  0  -0.088912  -0.102722  0  3.99591  0
C  C42  1  0.78227539  0.93800477  0.55884896  1  -0.04794  0  -0.088018  -0.116345  0  3.981855  0
C  C43  1  0.28227544  0.55884634  0.93800410  1  -0.04757  0  -0.087966  -0.11624  0  3.98188  0
C  C44  1  0.80025110  0.76400397  0.70446650  1  0.51107  0  0.118887  0.206426  0  4.021388  0
C  C45  1  0.30025465  0.70446320  0.76400654  1  0.510851  0  0.118928  0.206382  0  4.021176  0
C  C46  1  0.88379519  0.66135458  0.74853215  1  0.003814  0  -0.086418  -0.212744  0  3.915239  0
C  C47  1  0.38380249  0.74853405  0.66134993  1  0.003785  0  -0.086391  -0.212729  0  3.915296  0
C  C48  1  0.83193460  0.60126269  0.85301741  1  -0.01158  0  0.006508  0.108294  0  3.996664  0
C  C49  1  0.33193866  0.85301500  0.60126627  1  -0.012027  0  0.006511  0.108328  0  3.996839  0
C  C50  1  0.91955754  0.49350902  0.90348993  1  -0.057513  0  0.019342  0.115178  0  3.954474  0
C  C51  1  0.41956599  0.90349479  0.49350998  1  -0.056779  0  0.019301  0.115163  0  3.954509  0
C  C52  1  0.04526384  0.44157514  0.84713231  1  0.000365  0  -0.079047  -0.166616  0  3.940223  0
C  C53  1  0.54526863  0.84713224  0.44157659  1  0.000265  0  -0.079008  -0.16661  0  3.940145  0
C  C54  1  0.12901856  0.34190864  0.89817771  1  0.519881  0  0.053947  0.102124  0  3.937512  0
C  C55  1  0.62901878  0.89818311  0.34191164  1  0.519962  0  0.053898  0.102151  0  3.937626  0
C  C56  1  0.96914422  0.33823830  0.05656491  1  0.520505  0  0.052559  0.105875  0  3.95358  0
C  C57  1  0.46914979  0.05657300  0.33824373  1  0.440027  0  0.052485  0.105854  0  3.953205  0
C  C58  1  0.88249011  0.43827027  0.01096957  1  -0.018468  0  -0.078212  -0.16217  0  3.933314  0
C  C59  1  0.38249897  0.01097158  0.43828068  1  0.062356  0  -0.078079  -0.162051  0  3.932999  0
C  C60  1  0.69509789  0.64773808  0.90876817  1  -0.081645  0  -0.080222  -0.204594  0  3.904423  0
C  C61  1  0.19510411  0.90876753  0.64773851  1  -0.081657  0  -0.080284  -0.204708  0  3.904454  0
C  C62  1  0.61457897  0.75005426  0.85991073  1  0.565022  0  0.125276  0.216722  0  4.016604  0
C  C63  1  0.11458581  0.85990621  0.75005634  1  0.566957  0  0.125255  0.216723  0  4.016711  0
C  C64  1  0.46910294  0.80127238  0.91704790  1  -0.066467  0  -0.003782  0.041698  0  3.963988  0
C  C65  1  0.96910734  0.91704599  0.80127089  1  -0.068047  0  -0.003799  0.041689  0  3.964072  0
C  C66  1  0.38948557  0.74666031  0.01859198  1  -0.055037  0  -0.090543  -0.124661  0  3.984719  0
C  C67  1  0.88949016  0.01858881  0.74665623  1  -0.05478  0  -0.090433  -0.124645  0  3.985057  0
C  C68  1  0.25540221  0.79708599  0.07116890  1  -0.047638  0  -0.084621  -0.089861  0  3.983575  0
C  C69  1  0.75540145  0.07116828  0.79708036  1  -0.048039  0  -0.084612  -0.08979  0  3.983625  0
C  C70  1  0.19886288  0.90395598  0.02392136  1  -0.005471  0  -0.016354  -0.026068  0  3.969165  0
C  C71  1  0.69886864  0.02391861  0.90395414  1  -0.005344  0  -0.016395  -0.026217  0  3.969171  0
C  C72  1  0.27613318  0.95872125  0.92239015  1  -0.067722  0  -0.080814  -0.083242  0  3.956486  0
C  C73  1  0.77614197  0.92239239  0.95871458  1  -0.067637  0  -0.080838  -0.083267  0  3.956514  0
C  C74  1  0.40858083  0.90789766  0.86968464  1  0.026641  0  -0.082049  -0.100914  0  3.954357  0
C  C75  1  0.90858847  0.86968353  0.90789808  1  0.026392  0  -0.082039  -0.100861  0  3.954216  0
C  C76  1  0.04988792  0.95833540  0.07715635  1  1.502393  0  0.195143  0.561982  0  4.214338  0
C  C77  1  0.54988648  0.07715896  0.95832901  1  1.502303  0  0.195139  0.56207  0  4.214639  0
N  N78  1  0.66748283  0.80645823  0.75955053  1  -1.183963  0  -0.300783  -0.324035  0  3.304968  0
N  N79  1  0.16748392  0.75954957  0.80645903  1  -1.184069  0  -0.30079  -0.323948  0  3.305  0
N  N80  1  0.09217252  0.29098540  0.00148105  1  -1.252259  0  -0.328033  -0.229557  0  3.534635  0
N  N81  1  0.59217870  0.00148514  0.29099159  1  -1.252584  0  -0.328092  -0.229658  0  3.534755  0
O  O82  1  0.19186608  0.01952975  0.24472988  1  -1.139566  0  -0.321939  -0.529863  0  2.246086  0
O  O83  1  0.69186167  0.24472337  0.01954151  1  -1.139377  0  -0.321974  -0.529828  0  2.246217  0
O  O84  1  0.92421593  0.12048655  0.23851249  1  -1.192949  0  -0.341364  -0.603665  0  2.222367  0
O  O85  1  0.42419784  0.23852597  0.12048872  1  -1.193153  0  -0.341342  -0.603671  0  2.221906  0
O  O86  1  0.03257725  0.05930249  0.04184394  1  -1.144193  0  -0.339632  -0.5884  0  2.294689  0
O  O87  1  0.53257935  0.04184164  0.05930197  1  -1.144136  0  -0.339659  -0.588504  0  2.29453  0
O  O88  1  0.94095509  0.90808692  0.15044379  1  -1.167221  0  -0.322151  -0.552188  0  2.151231  0
O  O89  1  0.44096505  0.15043878  0.90808625  1  -1.167292  0  -0.322121  -0.552123  0  2.151721  0
