# generated using pymatgen
data_CoH8(C3N)4
_symmetry_space_group_name_H-M   'P 1'
_cell_length_a   5.73365464
_cell_length_b   7.20949479
_cell_length_c   12.76332898
_cell_angle_alpha   92.65594005
_cell_angle_beta   102.98859328
_cell_angle_gamma   90.04776108
_symmetry_Int_Tables_number   1
_chemical_formula_structural   CoH8(C3N)4
_chemical_formula_sum   'Co2 H16 C24 N8'
_cell_volume   513.50945193
_cell_formula_units_Z   2
loop_
 _symmetry_equiv_pos_site_id
 _symmetry_equiv_pos_as_xyz
  1  'x, y, z'
loop_
 _atom_site_type_symbol
 _atom_site_label
 _atom_site_symmetry_multiplicity
 _atom_site_fract_x
 _atom_site_fract_y
 _atom_site_fract_z
 _atom_site_occupancy
 _atom_site_hle17_ddec_charge
 _atom_site_hle17_ddec_spin_density
 _atom_site_hle17_ddec_sum_bond_order
 _atom_site_hle17_magmom
 _atom_site_hse06_10hf_ddec_charge
 _atom_site_hse06_10hf_ddec_spin_density
 _atom_site_hse06_10hf_ddec_sum_bond_order
 _atom_site_hse06_10hf_magmom
 _atom_site_hse06_ddec_charge
 _atom_site_hse06_ddec_spin_density
 _atom_site_hse06_ddec_sum_bond_order
 _atom_site_hse06_magmom
 _atom_site_pbe_cm5_charge
 _atom_site_pbe_ddec_charge
 _atom_site_pbe_ddec_spin_density
 _atom_site_pbe_ddec_sum_bond_order
 _atom_site_pbe_magmom
Co  Co0  1  0.45225856  0.25009500  0.99998123  1  0.764897  2.763582  2.194451  2.481  0.683285  2.793688  2.659812  2.532  0.771057  2.849056  2.58819  2.636  0.720669  0.613807  2.739528  2.714925  2.435
Co  Co1  1  0.54773612  0.74989843  0.00002037  1  0.7649  2.763576  2.194342  2.481  0.683271  2.793684  2.659735  2.532  0.771067  2.849056  2.588067  2.636  0.720643  0.613796  2.739527  2.714845  2.435
H  H2  1  0.11080461  0.36816670  0.39706545  1  0.089323  -7.1e-05  0.97267  0.0  0.10008  -3.3e-05  1.035869  0.0  0.102173  -2.9e-05  1.03607  0.0  0.096217  0.098585  -3.6e-05  1.0358  0.0
H  H3  1  0.71585277  0.13288093  0.60333255  1  0.089333  -3.2e-05  0.972084  0.0  0.100371  5e-06  1.035033  0.0  0.10234  -1e-06  1.035352  0.0  0.096492  0.098999  1.3e-05  1.034848  0.0
H  H4  1  0.88920000  0.63183085  0.60292643  1  0.089375  -7.6e-05  0.972708  0.0  0.100131  -3.3e-05  1.035906  0.0  0.102222  -2.8e-05  1.036109  0.0  0.09623  0.098635  -3.6e-05  1.035838  0.0
H  H5  1  0.28414138  0.86712226  0.39667706  1  0.089366  -3.5e-05  0.972218  0.0  0.100397  5e-06  1.035148  0.0  0.102366  -1e-06  1.035466  0.0  0.096493  0.099024  1.2e-05  1.03496  0.0
H  H6  1  0.22512386  0.34206758  0.59253752  1  0.086907  -7e-06  0.972833  0.0  0.097569  1.7e-05  1.036559  0.0  0.099537  1.7e-05  1.037256  0.0  0.095826  0.096115  1.9e-05  1.036258  0.0
H  H7  1  0.63339385  0.15918540  0.40793149  1  0.087659  5e-06  0.972829  0.0  0.098015  3.8e-05  1.036787  0.0  0.100018  3.1e-05  1.037447  0.0  0.095948  0.096573  4.6e-05  1.036462  0.0
H  H8  1  0.77486942  0.65792443  0.40745917  1  0.086903  -1.1e-05  0.972905  0.0  0.097598  1.7e-05  1.036583  0.0  0.099541  1.7e-05  1.037304  0.0  0.095826  0.096143  1.8e-05  1.03628  0.0
H  H9  1  0.36658443  0.84081498  0.59207306  1  0.08765  -1.1e-05  0.973043  0.0  0.097945  3.8e-05  1.037061  0.0  0.099946  3.2e-05  1.037725  0.0  0.09592  0.096503  4.6e-05  1.036735  0.0
H  H10  1  0.46614000  0.19895476  0.75854804  1  0.097004  -0.00046  0.982599  0.0  0.109074  0.000138  1.042492  0.0  0.110292  4.2e-05  1.042261  0.0  0.117204  0.108186  0.000247  1.042761  0.001
H  H11  1  0.70587782  0.30110314  0.24173695  1  0.097073  -0.000477  0.982218  0.0  0.109175  0.000156  1.041923  0.0  0.110447  5.6e-05  1.041646  0.0  0.117133  0.108268  0.000268  1.042194  0.001
H  H12  1  0.53387449  0.80103869  0.24145431  1  0.096959  -0.000456  0.982715  0.0  0.109052  0.000138  1.042559  0.0  0.11027  4.2e-05  1.042329  0.0  0.117222  0.108161  0.000247  1.04284  0.001
H  H13  1  0.29411598  0.69889313  0.75827559  1  0.097144  -0.000487  0.982184  0.0  0.109251  0.000156  1.041867  0.0  0.110524  5.6e-05  1.041591  0.0  0.117153  0.108342  0.000268  1.04214  0.001
H  H14  1  0.78458090  0.74894984  0.80249608  1  0.101529  -0.000309  0.956945  0.0  0.111647  0.000439  1.019337  0.001  0.112943  0.000271  1.01897  0.0  0.116953  0.110691  0.000609  1.019751  0.001
H  H15  1  0.98111992  0.75165449  0.19750754  1  0.101071  -0.000239  0.956503  0.0  0.110989  0.000449  1.019136  0.001  0.112217  0.000283  1.018823  0.0  0.116923  0.110105  0.000614  1.019487  0.001
H  H16  1  0.21538836  0.25106849  0.19749059  1  0.101534  -0.000307  0.956915  0.0  0.111673  0.000439  1.019288  0.001  0.112974  0.000271  1.018922  0.0  0.116952  0.110716  0.000609  1.019703  0.001
H  H17  1  0.01888919  0.24833756  0.80249414  1  0.101147  -0.000243  0.956502  0.0  0.111052  0.000449  1.019129  0.001  0.112281  0.000283  1.018813  0.0  0.116956  0.11017  0.000614  1.019483  0.001
C  C18  1  0.28264871  0.42512103  0.44131731  1  -0.109248  0.00025  3.746394  0.0  -0.126737  0.000352  3.991765  0.001  -0.12923  0.000126  4.012927  0.0  -0.093753  -0.124946  0.000652  3.977353  0.001
C  C19  1  0.84259708  0.07546652  0.55888245  1  -0.109335  0.000458  3.748033  0.001  -0.12744  0.000446  3.994393  0.001  -0.129908  0.000207  4.015675  0.0  -0.093704  -0.125621  0.000781  3.979783  0.001
C  C20  1  0.71736496  0.57487513  0.55867403  1  -0.10918  0.000267  3.746597  0.0  -0.126682  0.000352  3.991971  0.001  -0.129172  0.000126  4.013125  0.0  -0.093695  -0.124892  0.000651  3.97756  0.001
C  C21  1  0.15741334  0.92452417  0.44112485  1  -0.1094  0.000417  3.748143  0.001  -0.127474  0.000446  3.994472  0.001  -0.129942  0.000205  4.015747  0.0  -0.093677  -0.125651  0.000781  3.979859  0.001
C  C22  1  0.34853274  0.40971608  0.55228746  1  -0.110198  0.000476  3.733499  0.001  -0.127717  0.000566  3.979432  0.001  -0.130418  0.000301  4.000909  0.0  -0.092081  -0.125778  0.00092  3.96485  0.001
C  C23  1  0.79685327  0.09119086  0.44796916  1  -0.110824  0.000584  3.73348  0.001  -0.128258  0.000582  3.980146  0.001  -0.13107  0.000307  4.001649  0.0  -0.092792  -0.126202  0.000966  3.965421  0.001
C  C24  1  0.65146805  0.59028703  0.44770803  1  -0.110286  0.000478  3.733527  0.001  -0.127819  0.000566  3.979471  0.001  -0.130499  0.000301  4.000956  0.0  -0.092135  -0.125879  0.00092  3.964884  0.001
C  C25  1  0.20314672  0.90879841  0.55203295  1  -0.110758  0.000655  3.733865  0.001  -0.12817  0.000582  3.980515  0.001  -0.130981  0.000308  4.002012  0.0  -0.092796  -0.126116  0.000965  3.96579  0.001
C  C26  1  0.56715259  0.48412692  0.61334011  1  0.055638  0.000822  3.837548  0.001  0.069842  0.000804  4.069216  0.001  0.070918  0.00048  4.092963  0.001  -0.013074  0.069163  0.001276  4.053044  0.001
C  C27  1  0.95330709  0.01615469  0.38663918  1  0.055706  0.00107  3.839461  0.001  0.069088  0.000725  4.071887  0.001  0.070138  0.000413  4.095742  0.001  -0.013043  0.068488  0.001211  4.055532  0.001
C  C28  1  0.43284664  0.51587896  0.38665291  1  0.055821  0.000827  3.837269  0.001  0.069987  0.000804  4.068967  0.001  0.071067  0.00048  4.092704  0.001  -0.013021  0.069309  0.001275  4.052793  0.001
C  C29  1  0.04670859  0.98383324  0.61336945  1  0.055615  0.001024  3.839673  0.001  0.069048  0.000726  4.072031  0.001  0.070099  0.000412  4.095883  0.001  -0.012957  0.068449  0.001211  4.055673  0.001
C  C30  1  0.62090770  0.47382100  0.73071642  1  -0.0788  0.00469  3.860312  0.006  -0.060944  0.004549  4.102537  0.005  -0.068841  0.002549  4.126929  0.003  -0.038492  -0.055677  0.006733  4.086102  0.008
C  C31  1  0.88915342  0.02652593  0.26939778  1  -0.077096  0.005941  3.859061  0.007  -0.058669  0.00499  4.100753  0.006  -0.066737  0.002828  4.125396  0.003  -0.037467  -0.053204  0.007413  4.083969  0.009
C  C32  1  0.37908962  0.52618628  0.26927798  1  -0.07879  0.004691  3.860448  0.006  -0.060895  0.004549  4.102645  0.005  -0.06879  0.002549  4.127036  0.003  -0.038523  -0.05563  0.006733  4.086207  0.008
C  C33  1  0.11083875  0.97347310  0.73061307  1  -0.077081  0.005924  3.859315  0.007  -0.058679  0.004991  4.101012  0.006  -0.066744  0.002828  4.125653  0.003  -0.037548  -0.053212  0.007414  4.084231  0.009
C  C34  1  0.54098171  0.33459643  0.78809355  1  -0.010954  0.010909  3.732112  0.015  -0.050503  0.011996  3.99594  0.016  -0.041962  0.009432  4.014317  0.013  0.007501  -0.056461  0.014603  3.983205  0.019
C  C35  1  0.75145905  0.16561096  0.21215932  1  -0.01  0.011357  3.731118  0.015  -0.050168  0.012451  3.995104  0.016  -0.041807  0.009653  4.013724  0.013  0.007795  -0.055888  0.015363  3.982005  0.019
C  C36  1  0.45903372  0.66540251  0.21189885  1  -0.010937  0.010898  3.73241  0.015  -0.050512  0.012003  3.996228  0.016  -0.041972  0.009438  4.014606  0.013  0.007512  -0.056478  0.014611  3.983493  0.019
C  C37  1  0.24852421  0.83438528  0.78784963  1  -0.010194  0.011394  3.731262  0.016  -0.050369  0.012454  3.995261  0.016  -0.042013  0.009655  4.013883  0.013  0.007718  -0.056089  0.015366  3.982165  0.019
C  C38  1  0.71129712  0.61273609  0.81067644  1  -0.001133  0.014195  3.704199  0.019  -0.041561  0.014106  3.972328  0.018  -0.033126  0.011036  3.989619  0.014  0.009953  -0.047027  0.017651  3.959848  0.022
C  C39  1  0.89934821  0.88769482  0.18937379  1  0.000411  0.012898  3.702289  0.017  -0.040133  0.013521  3.970599  0.017  -0.031695  0.010581  3.988081  0.014  0.010455  -0.04561  0.016899  3.957954  0.021
C  C40  1  0.28869671  0.38727257  0.18931680  1  -0.001328  0.014199  3.704094  0.019  -0.041814  0.014115  3.972257  0.018  -0.033385  0.011043  3.989551  0.014  0.009861  -0.047279  0.017662  3.959773  0.022
C  C41  1  0.10066583  0.11230421  0.81063491  1  0.000402  0.01293  3.70244  0.017  -0.040111  0.013524  3.970737  0.017  -0.031672  0.010584  3.988216  0.014  0.010505  -0.045591  0.016902  3.958101  0.021
N  N42  1  0.57050965  0.38956796  0.89285725  1  -0.252169  0.046278  3.316533  0.07  -0.208764  0.036831  3.641685  0.046  -0.237087  0.027771  3.66492  0.033  -0.283619  -0.187275  0.045023  3.624619  0.056
N  N43  1  0.67577233  0.11068848  0.10748748  1  -0.250375  0.047654  3.315577  0.072  -0.207183  0.037698  3.641124  0.047  -0.235628  0.028424  3.664417  0.035  -0.282409  -0.185597  0.046089  3.624053  0.058
N  N44  1  0.42950219  0.61042959  0.10713469  1  -0.252124  0.046287  3.316708  0.07  -0.208732  0.036834  3.641861  0.046  -0.237056  0.027774  3.665095  0.033  -0.283678  -0.187245  0.045026  3.624798  0.056
N  N45  1  0.32423476  0.88931609  0.89251898  1  -0.250335  0.047643  3.315741  0.072  -0.207112  0.037697  3.641281  0.047  -0.235556  0.028424  3.664578  0.035  -0.282384  -0.185526  0.046087  3.624209  0.058
N  N46  1  0.67419483  0.56405785  0.90701783  1  -0.252485  0.039845  3.250547  0.06  -0.214655  0.032606  3.574117  0.04  -0.241342  0.022942  3.595888  0.028  -0.283692  -0.19402  0.041425  3.557566  0.051
N  N47  1  0.76544976  0.93621706  0.09316774  1  -0.253981  0.040585  3.250616  0.061  -0.216445  0.032872  3.57513  0.041  -0.243282  0.023214  3.596882  0.028  -0.28491  -0.19571  0.041678  3.558635  0.052
N  N48  1  0.32579760  0.43594523  0.09296962  1  -0.25239  0.039848  3.250422  0.06  -0.214522  0.0326  3.573962  0.04  -0.24121  0.022938  3.595738  0.028  -0.283623  -0.193887  0.041419  3.557411  0.051
N  N49  1  0.23457149  0.06378615  0.90684191  1  -0.253968  0.040565  3.250629  0.061  -0.216475  0.032876  3.575198  0.041  -0.243311  0.023217  3.596947  0.028  -0.284985  -0.195737  0.041683  3.558706  0.052
