# generated using pymatgen
data_Al2H8C23(Br3O8)2
_symmetry_space_group_name_H-M   'P 1'
_cell_length_a   7.16385920
_cell_length_b   17.21541170
_cell_length_c   20.82111467
_cell_angle_alpha   72.24347172
_cell_angle_beta   90.00081110
_cell_angle_gamma   90.00420529
_symmetry_Int_Tables_number   1
_chemical_formula_structural   Al2H8C23(Br3O8)2
_chemical_formula_sum   'Al4 H16 C46 Br12 O32'
_cell_volume   2445.51346346
_cell_formula_units_Z   2
loop_
 _symmetry_equiv_pos_site_id
 _symmetry_equiv_pos_as_xyz
  1  'x, y, z'
loop_
 _atom_site_type_symbol
 _atom_site_label
 _atom_site_symmetry_multiplicity
 _atom_site_fract_x
 _atom_site_fract_y
 _atom_site_fract_z
 _atom_site_occupancy
 _atom_site_pbe_bader_charge
 _atom_site_pbe_bader_spin_density
 _atom_site_pbe_cm5_charge
 _atom_site_pbe_ddec_charge
 _atom_site_pbe_ddec_spin_density
 _atom_site_pbe_ddec_sum_bond_order
 _atom_site_pbe_magmom
Al  Al0  1  0.06383768  0.50076920  0.49694078  1  2.507561  0  0.428145  1.64413  0  2.513947  0
Al  Al1  1  0.56382960  0.49919625  0.50308744  1  2.508046  0  0.428265  1.644341  0  2.513476  0
Al  Al2  1  0.70394912  0.99892216  0.00177478  1  2.507671  0  0.426271  1.645461  0  2.517537  0
Al  Al3  1  0.20395120  0.00106940  0.99824718  1  2.507776  0  0.426332  1.645595  0  2.516796  0
H  H4  1  0.81075205  0.18810132  0.35617645  1  0.159074  0  0.085128  0.094618  0  1.08696  0
H  H5  1  0.31071890  0.81196766  0.64382205  1  0.133709  0  0.085091  0.09465  0  1.086733  0
H  H6  1  0.12891576  0.17658704  0.27391201  1  0.178877  0  0.084202  0.095281  0  1.083921  0
H  H7  1  0.62891320  0.82343228  0.72610947  1  0.178815  0  0.08421  0.095138  0  1.084009  0
H  H8  1  0.86833689  0.40076485  0.18924926  1  0.205229  0  0.135724  0.160629  0  1.018188  0
H  H9  1  0.36817822  0.59926322  0.81069706  1  0.205081  0  0.135612  0.160746  0  1.017967  0
H  H10  1  0.24775808  0.44054461  0.17835466  1  0.654172  0  0.328153  0.387044  0  0.893896  0
H  H11  1  0.74769283  0.55945304  0.82159276  1  0.655107  0  0.328296  0.38711  0  0.894043  0
H  H12  1  0.06246099  0.35755645  0.01945627  1  0.630007  0  0.359073  0.406915  0  0.814789  0
H  H13  1  0.56236287  0.64236109  0.98053554  1  0.628182  0  0.359129  0.406886  0  0.814967  0
H  H14  1  0.45681098  0.44549393  0.26036414  1  0.677498  0  0.323213  0.378707  0  0.922988  0
H  H15  1  0.95676791  0.55456743  0.73957321  1  0.678404  0  0.32328  0.378905  0  0.922751  0
H  H16  1  0.31590305  0.39778356  0.49915277  1  0.615605  0  0.33999  0.421473  0  0.864222  0
H  H17  1  0.81593244  0.60219605  0.50083030  1  0.616199  0  0.339959  0.42134  0  0.864356  0
H  H18  1  0.45564143  0.10562908  0.99248930  1  0.578134  0  0.339017  0.419508  0  0.866863  0
H  H19  1  0.95560501  0.89453813  0.00696945  1  0.576324  0  0.338861  0.419618  0  0.86672  0
C  C20  1  0.30716250  0.57553649  0.57696486  1  1.669431  0  0.284195  0.736584  0  4.112856  0
C  C21  1  0.80718102  0.42444887  0.42305086  1  1.669238  0  0.284474  0.736769  0  4.112951  0
C  C22  1  0.32072851  0.60732315  0.39763278  1  1.696141  0  0.280996  0.71539  0  4.149532  0
C  C23  1  0.82075680  0.39266735  0.60240396  1  1.695988  0  0.281349  0.715584  0  4.148857  0
C  C24  1  0.83716019  0.33239116  0.66780709  1  -0.115427  0  -0.000742  -0.141454  0  3.832717  0
C  C25  1  0.33716357  0.66760287  0.33222776  1  -0.11852  0  -0.000324  -0.14131  0  3.833397  0
C  C26  1  0.87020255  0.28140105  0.72201251  1  -0.007427  0  -0.005168  0.031945  0  4.227408  0
C  C27  1  0.37025595  0.71858267  0.27802686  1  -0.004472  0  -0.005636  0.031497  0  4.2286  0
C  C28  1  0.90462915  0.22474374  0.78172691  1  -0.194738  0  -0.003061  0.038198  0  4.232268  0
C  C29  1  0.40467353  0.77524107  0.21830631  1  -0.194976  0  -0.002917  0.038816  0  4.232344  0
C  C30  1  0.93614034  0.17314269  0.83573590  1  0.107959  0  -0.00463  -0.151819  0  3.846332  0
C  C31  1  0.43614795  0.82686917  0.16429918  1  0.108035  0  -0.004409  -0.152095  0  3.846238  0
C  C32  1  0.77535504  0.16322450  0.26274540  1  0.0028  0  0.017128  0.142288  0  3.500989  0
C  C33  1  0.27532307  0.83680902  0.73726425  1  0.003115  0  0.017143  0.142303  0  3.501408  0
C  C34  1  0.07859793  0.23471700  0.24022825  1  -0.10523  0  -0.105464  -0.091281  0  3.741656  0
C  C35  1  0.57855625  0.76530056  0.75978320  1  -0.105026  0  -0.105312  -0.091116  0  3.742096  0
C  C36  1  0.03623795  0.29149844  0.28370809  1  -0.02284  0  0.014734  -0.010079  0  3.546561  0
C  C37  1  0.53614907  0.70853542  0.71628382  1  -0.023595  0  0.014483  -0.01027  0  3.545847  0
C  C38  1  0.79742059  0.38257666  0.37296516  1  0.217601  0  -0.03404  -0.173292  0  3.892806  0
C  C39  1  0.29734130  0.61744613  0.62702349  1  0.21738  0  -0.033742  -0.172873  0  3.892593  0
C  C40  1  0.90326763  0.21454669  0.20292186  1  0.132674  0  -0.002727  0.074015  0  3.816763  0
C  C41  1  0.40322651  0.78545330  0.79708901  1  0.13347  0  -0.002692  0.074177  0  3.81737  0
C  C42  1  0.73611198  0.21598690  0.30909612  1  -0.083665  0  -0.111367  -0.109769  0  3.765307  0
C  C43  1  0.23606096  0.78406174  0.69089665  1  -0.057955  0  -0.111378  -0.110196  0  3.766265  0
C  C44  1  0.81794814  0.30453771  0.28144466  1  0.148961  0  0.007903  0.131884  0  3.780443  0
C  C45  1  0.31784053  0.69550774  0.71853344  1  0.149703  0  0.007645  0.131928  0  3.780148  0
C  C46  1  0.76493445  0.35090723  0.20576074  1  -0.076412  0  -0.083715  -0.231375  0  3.714511  0
C  C47  1  0.26479825  0.64912253  0.79421144  1  -0.084582  0  -0.083574  -0.231896  0  3.715751  0
C  C48  1  0.81363619  0.29887733  0.15860130  1  0.015522  0  0.025586  0.033826  0  3.464574  0
C  C49  1  0.31354818  0.70112339  0.84138886  1  0.014701  0  0.025278  0.033563  0  3.464746  0
C  C50  1  0.78226666  0.34980090  0.32917454  1  -0.393912  0  -0.036712  -0.020127  0  4.038076  0
C  C51  1  0.28217080  0.65023838  0.67080221  1  -0.394515  0  -0.036776  -0.020201  0  4.037986  0
C  C52  1  0.94983369  0.16371646  0.16115789  1  -0.422297  0  -0.049421  -0.042716  0  4.112434  0
C  C53  1  0.44978344  0.83622975  0.83889132  1  -0.234572  0  -0.049302  -0.04291  0  4.112721  0
C  C54  1  0.95811926  0.11983371  0.12551183  1  0.241964  0  -0.028573  -0.157944  0  3.907704  0
C  C55  1  0.45806017  0.88005687  0.87459125  1  0.055087  0  -0.028788  -0.157886  0  3.908144  0
C  C56  1  0.44914994  0.88939806  0.10008944  1  1.697124  0  0.282071  0.719072  0  4.144027  0
C  C57  1  0.94915644  0.11061983  0.89994557  1  1.696234  0  0.281945  0.718847  0  4.144323  0
C  C58  1  0.45739754  0.92612170  0.92181872  1  1.66834  0  0.285587  0.737043  0  4.10681  0
C  C59  1  0.95742509  0.07380405  0.07824817  1  1.668954  0  0.285729  0.737388  0  4.105215  0
C  C60  1  0.15426479  0.37128900  0.26434623  1  1.597088  0  0.234356  0.565334  0  4.068503  0
C  C61  1  0.65418076  0.62874922  0.73563686  1  1.59963  0  0.234435  0.56514  0  4.068057  0
C  C62  1  0.93027799  0.35435640  0.09783356  1  1.525636  0  0.209983  0.529563  0  4.148807  0
C  C63  1  0.43021639  0.64562180  0.90213111  1  1.52621  0  0.210278  0.530135  0  4.148576  0
C  C64  1  0.59169059  0.40516700  0.19625063  1  1.539732  0  0.237752  0.620581  0  4.046002  0
C  C65  1  0.09155707  0.59485928  0.80372961  1  1.548985  0  0.237614  0.620775  0  4.047077  0
Br  Br66  1  0.56490744  0.10980349  0.23487963  1  0.001909  0  0.033371  -0.040041  0  1.650318  0
Br  Br67  1  0.06485647  0.89017957  0.76516841  1  0.001079  0  0.033327  -0.040097  0  1.650007  0
Br  Br68  1  0.48441499  0.21520326  0.34222758  1  -0.030024  0  0.003166  -0.074067  0  1.884438  0
Br  Br69  1  0.98436598  0.78487118  0.65773727  1  -0.029865  0  0.003138  -0.074085  0  1.88393  0
Br  Br70  1  0.92421660  0.06436643  0.31784842  1  -0.09104  0  0.006035  -0.088194  0  1.367566  0
Br  Br71  1  0.42416138  0.93566093  0.68218192  1  -0.091352  0  0.006136  -0.087962  0  1.367838  0
Br  Br72  1  0.28014727  0.26709900  0.17660889  1  -0.008084  0  0.027035  -0.055061  0  2.164317  0
Br  Br73  1  0.78007039  0.73291205  0.82340332  1  -0.008266  0  0.027074  -0.054874  0  2.16443  0
Br  Br74  1  0.09961407  0.23521508  0.38090983  1  -0.038993  0  0.082588  0.017183  0  1.675308  0
Br  Br75  1  0.59954261  0.76482460  0.61909610  1  -0.039282  0  0.082653  0.01739  0  1.675693  0
Br  Br76  1  0.61473584  0.27864183  0.09710725  1  -0.014274  0  0.072596  0.026161  0  1.630718  0
Br  Br77  1  0.11471736  0.72132719  0.90291596  1  -0.014271  0  0.072611  0.026141  0  1.630718  0
O  O78  1  0.47723423  0.58483737  0.42647898  1  -1.226348  0  -0.222894  -0.580399  0  2.294979  0
O  O79  1  0.97727930  0.41512874  0.57355298  1  -1.225739  0  -0.222974  -0.580364  0  2.294564  0
O  O80  1  0.15047041  0.56179377  0.55338284  1  -1.235465  0  -0.224884  -0.584761  0  2.279352  0
O  O81  1  0.65048755  0.43816273  0.44664202  1  -1.235739  0  -0.22501  -0.584835  0  2.27899  0
O  O82  1  0.15655963  0.58463402  0.41878762  1  -1.223416  0  -0.223442  -0.577531  0  2.264768  0
O  O83  1  0.65660403  0.41536428  0.58125087  1  -1.223269  0  -0.223388  -0.577575  0  2.264499  0
O  O84  1  0.97038758  0.44267705  0.43849669  1  -1.228915  0  -0.224048  -0.584064  0  2.268196  0
O  O85  1  0.47037497  0.55731210  0.56153211  1  -1.228427  0  -0.22387  -0.583983  0  2.267728  0
O  O86  1  0.31368782  0.45112517  0.50592291  1  -1.421108  0  -0.454337  -0.979392  0  2.040513  0
O  O87  1  0.81368917  0.54882648  0.49411317  1  -1.421624  0  -0.454287  -0.979277  0  2.040869  0
O  O88  1  0.29591148  0.94465083  0.93846065  1  -1.223596  0  -0.223049  -0.584375  0  2.28043  0
O  O89  1  0.79594695  0.05528811  0.06158494  1  -1.223426  0  -0.223163  -0.584394  0  2.279824  0
O  O90  1  0.61222048  0.91245227  0.07769726  1  -1.227953  0  -0.224676  -0.579882  0  2.264873  0
O  O91  1  0.11223960  0.08756741  0.92231651  1  -1.227772  0  -0.224647  -0.579961  0  2.265129  0
O  O92  1  0.61681767  0.94133028  0.94245163  1  -1.230683  0  -0.226195  -0.585129  0  2.275843  0
O  O93  1  0.11682461  0.05862772  0.05758888  1  -1.230995  0  -0.22612  -0.58509  0  2.275371  0
O  O94  1  0.79130988  0.08627464  0.92697911  1  -1.223978  0  -0.22278  -0.580435  0  2.292119  0
O  O95  1  0.29131609  0.91374163  0.07306155  1  -1.223783  0  -0.222591  -0.580084  0  2.291663  0
O  O96  1  0.45449514  0.04839036  0.99517641  1  -1.384514  0  -0.454251  -0.980448  0  2.051975  0
O  O97  1  0.95448846  0.95161786  0.00479279  1  -1.382682  0  -0.454083  -0.980561  0  2.051596  0
O  O98  1  0.26531440  0.38957264  0.30188257  1  -1.113157  0  -0.249713  -0.439621  0  2.249759  0
O  O99  1  0.12785175  0.41594250  0.20018409  1  -1.15904  0  -0.323929  -0.460599  0  2.419935  0
O  O100  1  0.76521954  0.61048474  0.69808718  1  -1.114474  0  -0.24978  -0.439611  0  2.249419  0
O  O101  1  0.62778706  0.58408164  0.79979314  1  -1.160185  0  -0.324092  -0.460637  0  2.420549  0
O  O102  1  0.93160165  0.42823073  0.08510699  1  -1.07242  0  -0.279866  -0.439164  0  2.13324  0
O  O103  1  0.00726014  0.31508459  0.05733928  1  -1.11887  0  -0.332301  -0.478496  0  2.344183  0
O  O104  1  0.43151702  0.57175373  0.91482505  1  -1.072983  0  -0.280071  -0.439589  0  2.133572  0
O  O105  1  0.50726004  0.68485445  0.94264594  1  -1.116927  0  -0.332227  -0.478279  0  2.344651  0
O  O106  1  0.47954163  0.41955804  0.14964838  1  -1.120243  0  -0.274456  -0.484693  0  2.247833  0
O  O107  1  0.58713720  0.44327539  0.24354105  1  -1.16283  0  -0.328196  -0.467246  0  2.33012  0
O  O108  1  0.97939968  0.58048773  0.85032725  1  -1.121496  0  -0.274344  -0.484711  0  2.248507  0
O  O109  1  0.08705110  0.55670409  0.75646381  1  -1.164489  0  -0.328212  -0.467438  0  2.329514  0
