# generated using pymatgen
data_AlH12C27S3N7O15
_symmetry_space_group_name_H-M   'P 1'
_cell_length_a   4.27713148
_cell_length_b   17.94975456
_cell_length_c   17.99327890
_cell_angle_alpha   119.99960792
_cell_angle_beta   91.78787963
_cell_angle_gamma   90.95075493
_symmetry_Int_Tables_number   1
_chemical_formula_structural   AlH12C27S3N7O15
_chemical_formula_sum   'Al1 H12 C27 S3 N7 O15'
_cell_volume   1194.92802422
_cell_formula_units_Z   1
loop_
 _symmetry_equiv_pos_site_id
 _symmetry_equiv_pos_as_xyz
  1  'x, y, z'
loop_
 _atom_site_type_symbol
 _atom_site_label
 _atom_site_symmetry_multiplicity
 _atom_site_fract_x
 _atom_site_fract_y
 _atom_site_fract_z
 _atom_site_occupancy
 _atom_site_pbe_bader_charge
 _atom_site_pbe_bader_spin_density
 _atom_site_pbe_cm5_charge
 _atom_site_pbe_ddec_charge
 _atom_site_pbe_ddec_spin_density
 _atom_site_pbe_ddec_sum_bond_order
 _atom_site_pbe_magmom
Al  Al0  1  0.06480265  0.00002860  0.49934781  1  2.52094  0  0.459169  1.649664  0  2.479347  0
H  H1  1  0.42213214  0.30353461  0.41487553  1  0.095444  0  0.120802  0.126355  0  0.982341  0
H  H2  1  0.45499825  0.08012049  0.88416432  1  0.124007  0  0.120998  0.126447  0  0.982159  0
H  H3  1  0.39232305  0.61248364  0.19249572  1  0.121337  0  0.121071  0.12674  0  0.981038  0
H  H4  1  0.53455612  0.32661056  0.89875339  1  0.192299  0  0.124642  0.139718  0  0.989306  0
H  H5  1  0.52001645  0.00631906  0.72546997  1  0.110208  0  0.118877  0.133482  0  0.968505  0
H  H6  1  0.46151432  0.77285484  0.27931624  1  0.107985  0  0.118673  0.132896  0  0.970273  0
H  H7  1  0.47654903  0.59797681  0.42398924  1  0.140198  0  0.124155  0.138715  0  0.991139  0
H  H8  1  0.48563314  0.07109206  0.17099036  1  0.152759  0  0.124091  0.139089  0  0.992117  0
H  H9  1  0.49117829  0.21932282  0.49036637  1  0.140854  0  0.118824  0.132809  0  0.967266  0
H  H10  1  0.04721723  0.91652430  0.25002068  1  0.680305  0  0.315288  0.391229  0  0.957911  0
H  H11  1  0.06770926  0.83211868  0.58152013  1  0.680434  0  0.315483  0.391916  0  0.956792  0
H  H12  1  0.10178548  0.25140314  0.66804493  1  0.680286  0  0.315001  0.390948  0  0.958328  0
C  C13  1  0.55626163  0.05049056  0.42176508  1  1.639092  0  0.279696  0.670847  0  4.075675  0
C  C14  1  0.58287377  0.07732624  0.62725780  1  1.620782  0  0.279885  0.672499  0  4.077539  0
C  C15  1  0.54661281  0.87164320  0.44861411  1  1.600291  0  0.279615  0.670764  0  4.078209  0
C  C16  1  0.44499562  0.23399162  0.37851050  1  -0.041621  0  -0.057987  -0.065398  0  3.907634  0
C  C17  1  0.44290950  0.19228063  0.28841074  1  0.186836  0  -0.001901  0.005682  0  3.958266  0
C  C18  1  0.48121505  0.11725599  0.85177495  1  -0.013431  0  -0.05818  -0.065156  0  3.907456  0
C  C19  1  0.48145559  0.20755006  0.90054829  1  -0.009149  0  -0.001165  0.006552  0  3.9564  0
C  C20  1  0.42147212  0.59575679  0.30310086  1  0.062774  0  -0.001499  0.005652  0  3.957257  0
C  C21  1  0.41924188  0.64511651  0.26229651  1  -0.062866  0  -0.058011  -0.065773  0  3.908693  0
C  C22  1  0.52261452  0.25658095  0.86034586  1  0.013572  0  -0.059766  -0.085702  0  3.914111  0
C  C23  1  0.56048733  0.21519803  0.77221300  1  -0.137062  0  -0.013998  -0.132849  0  3.956713  0
C  C24  1  0.55676835  0.12482454  0.72284365  1  -0.072073  0  0.011143  -0.00983  0  3.916141  0
C  C25  1  0.51870797  0.07639086  0.76368117  1  -0.005759  0  -0.069765  -0.087485  0  3.918979  0
C  C26  1  0.45891024  0.73419424  0.31062629  1  0.132766  0  -0.069665  -0.08606  0  3.917365  0
C  C27  1  0.50214002  0.77551744  0.40025365  1  -0.069307  0  0.010622  -0.010169  0  3.916098  0
C  C28  1  0.50402464  0.72573755  0.44070981  1  -0.15569  0  -0.014044  -0.133482  0  3.955336  0
C  C29  1  0.46312162  0.63657842  0.39278107  1  0.016237  0  -0.059425  -0.084104  0  3.911429  0
C  C30  1  0.47750100  0.10301205  0.24068969  1  -0.058917  0  -0.059319  -0.084607  0  3.916294  0
C  C31  1  0.51349046  0.05640294  0.28294580  1  -0.227614  0  -0.014205  -0.13398  0  3.958994  0
C  C32  1  0.51830215  0.09780499  0.37316763  1  0.030828  0  0.011583  -0.007777  0  3.912594  0
C  C33  1  0.48399288  0.18708724  0.42037172  1  -0.052264  0  -0.069723  -0.088011  0  3.917973  0
C  C34  1  0.40055532  0.37375619  0.25317799  1  1.536826  0  0.360195  0.509084  0  4.08491  0
C  C35  1  0.43827796  0.24104256  0.11589032  1  1.508717  0  0.359907  0.507618  0  4.085522  0
C  C36  1  0.42363914  0.24191404  0.24343717  1  1.09306  0  0.262358  0.390245  0  4.046352  0
C  C37  1  0.40487497  0.50092330  0.25243630  1  1.078139  0  0.262203  0.389786  0  4.047195  0
C  C38  1  0.42461603  0.37928922  0.12065902  1  1.575498  0  0.360636  0.509392  0  4.082933  0
C  C39  1  0.45486783  0.25169357  0.99450855  1  1.126998  0  0.261597  0.389105  0  4.046779  0
S  S40  1  0.59425097  0.94500317  0.21670719  1  3.146118  0  0.559351  1.185227  0  5.973926  0
S  S41  1  0.61066223  0.76979150  0.55229354  1  3.1486  0  0.56087  1.188207  0  5.970313  0
S  S42  1  0.65951009  0.28310015  0.72931706  1  3.14894  0  0.560431  1.186539  0  5.968864  0
N  N43  1  0.42173411  0.33138675  0.16325638  1  -1.222329  0  -0.191041  -0.238787  0  3.550598  0
N  N44  1  0.44161137  0.19703313  0.15743297  1  -1.195787  0  -0.314758  -0.434135  0  3.20641  0
N  N45  1  0.39702700  0.32753893  0.29254131  1  -1.168905  0  -0.316844  -0.442893  0  3.208362  0
N  N46  1  0.38896579  0.45923502  0.29706436  1  -1.182833  0  -0.315537  -0.436016  0  3.206532  0
N  N47  1  0.41647078  0.46487806  0.16666293  1  -1.27071  0  -0.316224  -0.4416  0  3.205652  0
N  N48  1  0.45401577  0.20177634  0.03070323  1  -1.198079  0  -0.316301  -0.441942  0  3.207253  0
N  N49  1  0.43984746  0.33801495  0.03548575  1  -1.153867  0  -0.315604  -0.435921  0  3.206121  0
O  O50  1  0.33058173  0.91362644  0.49835540  1  -1.258519  0  -0.237414  -0.601086  0  2.362605  0
O  O51  1  0.32741589  0.00049879  0.41419428  1  -1.247839  0  -0.23659  -0.60013  0  2.365971  0
O  O52  1  0.35464550  0.08502941  0.58455419  1  -1.25732  0  -0.237839  -0.604812  0  2.366624  0
O  O53  1  0.79019164  0.90159672  0.43271848  1  -1.2419  0  -0.225036  -0.585366  0  2.375681  0
O  O54  1  0.82104882  0.03200608  0.59819257  1  -1.24308  0  -0.224269  -0.583292  0  2.367807  0
O  O55  1  0.80729397  0.06704714  0.46758975  1  -1.241108  0  -0.224627  -0.583414  0  2.366533  0
O  O56  1  0.31698939  0.89036724  0.20398962  1  -1.305799  0  -0.311203  -0.540388  0  2.278783  0
O  O57  1  0.73331986  0.93437093  0.14073202  1  -1.276092  0  -0.29436  -0.498739  0  2.10705  0
O  O58  1  0.82265358  0.92978812  0.27580645  1  -1.289592  0  -0.339626  -0.539655  0  2.32084  0
O  O59  1  0.34632242  0.81028730  0.60612212  1  -1.309615  0  -0.31104  -0.541142  0  2.286383  0
O  O60  1  0.75815369  0.70398769  0.56217583  1  -1.270766  0  -0.294538  -0.499178  0  2.105828  0
O  O61  1  0.83763276  0.84548737  0.56966441  1  -1.292971  0  -0.340168  -0.540002  0  2.311956  0
O  O62  1  0.38517421  0.29695680  0.68760753  1  -1.30472  0  -0.311346  -0.539762  0  2.273034  0
O  O63  1  0.82214061  0.35866390  0.79607311  1  -1.280417  0  -0.29482  -0.49924  0  2.101718  0
O  O64  1  0.87001473  0.22482003  0.65527186  1  -1.295126  0  -0.33933  -0.539323  0  2.318706  0
