# generated using pymatgen
data_Zn3H12C50(OF)12
_symmetry_space_group_name_H-M   'P 1'
_cell_length_a   29.52802030
_cell_length_b   29.52828321
_cell_length_c   29.52825861
_cell_angle_alpha   61.94981907
_cell_angle_beta   74.64048431
_cell_angle_gamma   105.35960835
_symmetry_Int_Tables_number   1
_chemical_formula_structural   Zn3H12C50(OF)12
_chemical_formula_sum   'Zn6 H24 C100 O24 F24'
_cell_volume   19481.56539733
_cell_formula_units_Z   2
loop_
 _symmetry_equiv_pos_site_id
 _symmetry_equiv_pos_as_xyz
  1  'x, y, z'
loop_
 _atom_site_type_symbol
 _atom_site_label
 _atom_site_symmetry_multiplicity
 _atom_site_fract_x
 _atom_site_fract_y
 _atom_site_fract_z
 _atom_site_occupancy
 _atom_site_pbe_bader_charge
 _atom_site_pbe_bader_spin_density
 _atom_site_pbe_cm5_charge
 _atom_site_pbe_ddec_charge
 _atom_site_pbe_ddec_spin_density
 _atom_site_pbe_ddec_sum_bond_order
 _atom_site_pbe_magmom
Zn  Zn0  1  0.53613606  0.00000113  0.46386390  1  1.308589  0  0.743786  0.982493  0  2.05897  0
Zn  Zn1  1  0.53613681  0.53613703  0.99999988  1  1.317992  0  0.74371  0.982396  0  2.059267  0
Zn  Zn2  1  0.46386297  0.99999974  0.53613635  1  1.317997  0  0.743668  0.982334  0  2.059295  0
Zn  Zn3  1  0.46386420  0.46386482  0.00000040  1  1.308523  0  0.743766  0.982434  0  2.059079  0
Zn  Zn4  1  0.99999989  0.45790665  0.54209322  1  1.283489  0  0.732358  0.971673  0  2.084521  0
Zn  Zn5  1  0.99999949  0.54209277  0.45790702  1  1.296093  0  0.732406  0.971715  0  2.084308  0
H  H6  1  0.41509054  0.59368126  0.90214430  1  0.121576  0  0.111498  0.123936  0  0.990462  0
H  H7  1  0.50417475  0.09785539  0.31723269  1  0.114798  0  0.111519  0.123958  0  0.990297  0
H  H8  1  0.58491514  0.68276860  0.82140566  1  0.114516  0  0.11151  0.12396  0  0.990447  0
H  H9  1  0.49582553  0.17859225  0.40631976  1  0.114031  0  0.111525  0.123967  0  0.99029  0
H  H10  1  0.50417441  0.40631976  0.17859241  1  0.114039  0  0.11152  0.123972  0  0.990294  0
H  H11  1  0.58491000  0.90214431  0.59368092  1  0.121603  0  0.111491  0.123941  0  0.990424  0
H  H12  1  0.49582508  0.31723299  0.09785517  1  0.114793  0  0.111514  0.123957  0  0.990298  0
H  H13  1  0.41508502  0.82140610  0.68276859  1  0.114523  0  0.111512  0.123954  0  0.990413  0
H  H14  1  0.18790678  0.75920226  0.42932183  1  0.065193  0  0.110905  0.114281  0  0.982913  0
H  H15  1  0.81148607  0.57069005  0.61723046  1  0.066504  0  0.110891  0.114295  0  0.982905  0
H  H16  1  0.81208001  0.38277033  0.42871611  1  0.059202  0  0.11088  0.114268  0  0.98292  0
H  H17  1  0.18851336  0.57128578  0.24079719  1  0.040349  0  0.11089  0.114288  0  0.982895  0
H  H18  1  0.81148634  0.24079696  0.57128579  1  0.040343  0  0.110891  0.114289  0  0.9829  0
H  H19  1  0.81208053  0.42930766  0.75920381  1  0.065372  0  0.110889  0.114272  0  0.982906  0
H  H20  1  0.18852415  0.61722756  0.57068016  1  0.066417  0  0.110906  0.114252  0  0.982868  0
H  H21  1  0.18791929  0.42871576  0.38277091  1  0.059258  0  0.110888  0.114257  0  0.982926  0
H  H22  1  0.11822562  0.68901638  0.42950748  1  0.090946  0  0.111038  0.117741  0  0.988919  0
H  H23  1  0.88148634  0.57050403  0.54773508  1  0.108002  0  0.111011  0.117668  0  0.989106  0
H  H24  1  0.88176275  0.45226512  0.42922032  1  0.067805  0  0.111  0.117647  0  0.989095  0
H  H25  1  0.11851428  0.57078128  0.31098329  1  0.099484  0  0.111023  0.117653  0  0.989051  0
H  H26  1  0.88148547  0.31098348  0.57078106  1  0.099165  0  0.111025  0.117637  0  0.989134  0
H  H27  1  0.88176362  0.42949660  0.68901626  1  0.090672  0  0.111059  0.1177  0  0.989073  0
H  H28  1  0.11852383  0.54773271  0.57049263  1  0.10803  0  0.111026  0.117711  0  0.988956  0
H  H29  1  0.11823699  0.42922024  0.45226552  1  0.067588  0  0.111012  0.117646  0  0.989071  0
C  C30  1  0.42761640  0.92761515  0.49999784  1  1.605986  0  0.22095  0.631806  0  4.155025  0
C  C31  1  0.57238331  0.49999879  0.92761458  1  1.60599  0  0.220923  0.631812  0  4.155156  0
C  C32  1  0.57238776  0.07238521  0.49999791  1  1.60502  0  0.220926  0.631827  0  4.154967  0
C  C33  1  0.42761296  0.49999954  0.07238421  1  1.605227  0  0.220913  0.631849  0  4.154923  0
C  C34  1  0.11431444  0.61431408  0.50000045  1  0.049281  0  -0.01422  -0.027976  0  3.960841  0
C  C35  1  0.88568586  0.49999998  0.61431538  1  0.049859  0  -0.014133  -0.027929  0  3.961083  0
C  C36  1  0.88568499  0.38568507  0.50000085  1  0.04717  0  -0.014168  -0.028032  0  3.961133  0
C  C37  1  0.11431476  0.50000052  0.38568530  1  0.046997  0  -0.014182  -0.028029  0  3.961176  0
C  C38  1  0.19268101  0.69268035  0.50000136  1  0.033775  0  0.006559  0.139388  0  4.099576  0
C  C39  1  0.80731776  0.49999901  0.69268255  1  0.033887  0  0.006699  0.139564  0  4.099405  0
C  C40  1  0.80731802  0.30731783  0.50000015  1  0.066374  0  0.006684  0.139549  0  4.0995  0
C  C41  1  0.19268207  0.50000033  0.30731821  1  0.066207  0  0.006689  0.139518  0  4.099506  0
C  C42  1  0.23225533  0.73225462  0.50000134  1  -0.345975  0  -0.018418  -0.064731  0  4.063699  0
C  C43  1  0.76774267  0.49999806  0.73225746  1  -0.34545  0  -0.018402  -0.064635  0  4.063623  0
C  C44  1  0.76774331  0.26774298  0.50000089  1  -0.344844  0  -0.018423  -0.064717  0  4.063708  0
C  C45  1  0.23225676  0.50000070  0.26774402  1  -0.344847  0  -0.01843  -0.064712  0  4.063656  0
C  C46  1  0.26629310  0.76629203  0.50000203  1  0.062358  0  -0.044774  -0.07934  0  4.12856  0
C  C47  1  0.73370493  0.49999901  0.76629464  1  0.061382  0  -0.044878  -0.07953  0  4.128623  0
C  C48  1  0.73370514  0.23370538  0.50000175  1  0.055983  0  -0.044874  -0.079474  0  4.128615  0
C  C49  1  0.26629450  0.50000051  0.23370648  1  0.055987  0  -0.044844  -0.079411  0  4.128516  0
C  C50  1  0.29466280  0.83912891  0.51874641  1  0.562454  0  0.096333  0.130781  0  4.063651  0
C  C51  1  0.64212325  0.48125402  0.81340990  1  0.5394  0  0.096364  0.130858  0  4.06372  0
C  C52  1  0.70533584  0.18659042  0.45553494  1  0.575738  0  0.09636  0.130892  0  4.06362  0
C  C53  1  0.35787657  0.54446628  0.16087001  1  0.543885  0  0.096365  0.130933  0  4.063575  0
C  C54  1  0.64212227  0.16086955  0.54446692  1  0.543938  0  0.096325  0.130797  0  4.063709  0
C  C55  1  0.70533647  0.51874708  0.83912913  1  0.562323  0  0.096269  0.130727  0  4.063643  0
C  C56  1  0.35787518  0.81340765  0.48125689  1  0.539716  0  0.096329  0.13085  0  4.06365  0
C  C57  1  0.29466374  0.45553419  0.18659034  1  0.575786  0  0.096341  0.130859  0  4.063601  0
C  C58  1  0.33342818  0.87793905  0.51885157  1  0.5625  0  0.099534  0.172152  0  4.078203  0
C  C59  1  0.60320859  0.48114828  0.85228141  1  0.574908  0  0.099574  0.172278  0  4.078149  0
C  C60  1  0.66657046  0.14771967  0.45549017  1  0.560165  0  0.099526  0.172127  0  4.078241  0
C  C61  1  0.39679084  0.54451084  0.12205993  1  0.542678  0  0.099565  0.172199  0  4.078175  0
C  C62  1  0.60320797  0.12206028  0.54451046  1  0.542707  0  0.099553  0.172201  0  4.078124  0
C  C63  1  0.66657151  0.51885365  0.87793725  1  0.562817  0  0.099598  0.172365  0  4.078108  0
C  C64  1  0.39679027  0.85227983  0.48115066  1  0.574716  0  0.0995  0.172111  0  4.078287  0
C  C65  1  0.33342950  0.45549129  0.14771849  1  0.560148  0  0.099591  0.172227  0  4.078127  0
C  C66  1  0.38579736  0.88579825  0.50000102  1  0.069528  0  -0.02741  -0.215844  0  3.967934  0
C  C67  1  0.61420193  0.50000159  0.88579788  1  0.069528  0  -0.02745  -0.216046  0  3.968086  0
C  C68  1  0.61420088  0.11420184  0.50000049  1  0.059289  0  -0.027392  -0.215857  0  3.967937  0
C  C69  1  0.38579868  0.50000160  0.11420052  1  0.059319  0  -0.02745  -0.215946  0  3.967953  0
C  C70  1  0.30565176  0.80565047  0.50000188  1  0.204388  0  -0.00868  -0.02654  0  4.176883  0
C  C71  1  0.69434748  0.50000003  0.80565189  1  0.204617  0  -0.008611  -0.026477  0  4.176938  0
C  C72  1  0.69434648  0.19434731  0.50000105  1  0.230346  0  -0.008625  -0.026495  0  4.176948  0
C  C73  1  0.30565274  0.50000027  0.19434831  1  0.230373  0  -0.00865  -0.026607  0  4.176846  0
C  C74  1  0.92736149  0.50000008  0.57263869  1  1.53684  0  0.221154  0.596424  0  4.157301  0
C  C75  1  0.92736105  0.42736168  0.49999963  1  1.536369  0  0.221133  0.596421  0  4.157347  0
C  C76  1  0.07263833  0.50000079  0.42736067  1  1.536767  0  0.221045  0.596302  0  4.157419  0
C  C77  1  0.07263798  0.57263880  0.49999945  1  1.53697  0  0.221147  0.59634  0  4.157311  0
C  C78  1  0.49999810  0.91493943  0.58506077  1  1.569811  0  0.223613  0.602611  0  4.15589  0
C  C79  1  0.49999856  0.41493856  0.08505988  1  1.5682  0  0.223544  0.602993  0  4.155468  0
C  C80  1  0.50000172  0.08505991  0.41493762  1  1.568201  0  0.223564  0.60301  0  4.155366  0
C  C81  1  0.50000205  0.58506118  0.91493947  1  1.570106  0  0.223618  0.602608  0  4.155853  0
C  C82  1  0.45190112  0.63151876  0.86632368  1  -0.003015  0  -0.077866  -0.129085  0  3.917322  0
C  C83  1  0.50215795  0.13367647  0.31822300  1  -0.000546  0  -0.077856  -0.129029  0  3.917123  0
C  C84  1  0.54810298  0.68177803  0.82037972  1  0.023857  0  -0.077921  -0.12921  0  3.91742  0
C  C85  1  0.49784273  0.17961908  0.36848122  1  0.007374  0  -0.077941  -0.129123  0  3.917273  0
C  C86  1  0.50215759  0.36848151  0.17961906  1  0.00739  0  -0.077866  -0.129091  0  3.917186  0
C  C87  1  0.54809864  0.86632370  0.63151834  1  -0.003044  0  -0.077854  -0.129061  0  3.917328  0
C  C88  1  0.49784191  0.31822313  0.13367639  1  -0.00047  0  -0.077872  -0.129024  0  3.91717  0
C  C89  1  0.45189717  0.82037938  0.68177812  1  0.02383  0  -0.077906  -0.129177  0  3.917382  0
C  C90  1  0.50000324  0.63417378  0.86582672  1  0.014521  0  -0.01098  -0.005559  0  3.988281  0
C  C91  1  0.50000014  0.13417228  0.36582808  1  0.032635  0  -0.010985  -0.005787  0  3.9882  0
C  C92  1  0.49999975  0.36582829  0.13417192  1  0.032641  0  -0.011022  -0.005845  0  3.988243  0
C  C93  1  0.49999652  0.86582701  0.63417354  1  0.014528  0  -0.010971  -0.005558  0  3.988348  0
C  C94  1  0.54863543  0.72743465  0.77333691  1  0.037346  0  -0.009954  -0.001711  0  4.07191  0
C  C95  1  0.49922835  0.22666193  0.32197233  1  0.034406  0  -0.009985  -0.001895  0  4.071978  0
C  C96  1  0.45136749  0.67802821  0.82119947  1  0.028561  0  -0.01004  -0.001939  0  4.072102  0
C  C97  1  0.50077193  0.17880009  0.27256617  1  0.033255  0  -0.01001  -0.001937  0  4.072081  0
C  C98  1  0.49922753  0.27256626  0.17879984  1  0.033166  0  -0.010029  -0.001994  0  4.072129  0
C  C99  1  0.45136433  0.77333709  0.72743469  1  0.0373  0  -0.009943  -0.001709  0  4.071862  0
C  C100  1  0.50077197  0.32197248  0.22666150  1  0.034387  0  -0.009986  -0.001779  0  4.071901  0
C  C101  1  0.54863266  0.82119992  0.67802777  1  0.028568  0  -0.010056  -0.001957  0  4.072166  0
C  C102  1  0.50000087  0.72664378  0.77335599  1  -0.06801  0  0.001747  0.009919  0  3.954286  0
C  C103  1  0.50000054  0.22664404  0.27335612  1  0.012941  0  0.00178  0.009987  0  3.954299  0
C  C104  1  0.50000014  0.27335654  0.22664366  1  -0.06791  0  0.001802  0.010013  0  3.954268  0
C  C105  1  0.49999929  0.77335606  0.72664360  1  0.017028  0  0.001732  0.009849  0  3.954301  0
C  C106  1  0.59660917  0.77606755  0.72441074  1  0.455329  0  0.091655  0.117692  0  4.089732  0
C  C107  1  0.49952145  0.27558819  0.32102033  1  0.462122  0  0.09173  0.11788  0  4.089796  0
C  C108  1  0.40339216  0.67897865  0.82054161  1  0.5454  0  0.091736  0.11785  0  4.089757  0
C  C109  1  0.50047884  0.17945834  0.22393351  1  0.461781  0  0.091738  0.117827  0  4.08976  0
C  C110  1  0.49952099  0.22393405  0.17945787  1  0.540974  0  0.091755  0.11789  0  4.089705  0
C  C111  1  0.40339098  0.72441116  0.77606734  1  0.455344  0  0.091687  0.11775  0  4.089788  0
C  C112  1  0.50047890  0.32102038  0.27558793  1  0.532075  0  0.091675  0.117667  0  4.089831  0
C  C113  1  0.59660759  0.82054175  0.67897849  1  0.545409  0  0.091786  0.117881  0  4.08975  0
C  C114  1  0.17257213  0.71285873  0.46013373  1  0.006145  0  -0.076608  -0.122126  0  3.940632  0
C  C115  1  0.82701426  0.53987415  0.63270698  1  0.051908  0  -0.076595  -0.122154  0  3.940587  0
C  C116  1  0.82741901  0.36729331  0.45972060  1  0.016761  0  -0.076574  -0.12211  0  3.940595  0
C  C117  1  0.17298596  0.54028089  0.28714014  1  0.037885  0  -0.076576  -0.122099  0  3.940555  0
C  C118  1  0.82701414  0.28713984  0.54028055  1  0.037884  0  -0.07659  -0.122152  0  3.940583  0
C  C119  1  0.82741951  0.46012420  0.71286057  1  0.006038  0  -0.076616  -0.122146  0  3.94053  0
C  C120  1  0.17299200  0.63270447  0.53986871  1  0.052013  0  -0.076523  -0.12195  0  3.940653  0
C  C121  1  0.17258031  0.45972041  0.36729395  1  0.016885  0  -0.0766  -0.122111  0  3.940654  0
C  C122  1  0.13388613  0.67391421  0.46021446  1  -0.057266  0  -0.078655  -0.086829  0  3.980526  0
C  C123  1  0.86587758  0.53979283  0.59410208  1  -0.0577  0  -0.078749  -0.086879  0  3.980903  0
C  C124  1  0.86610579  0.40589804  0.45997920  1  -0.010834  0  -0.07872  -0.086806  0  3.980778  0
C  C125  1  0.13412343  0.54002242  0.32608540  1  -0.067688  0  -0.078722  -0.086787  0  3.980797  0
C  C126  1  0.86587670  0.32608539  0.54002224  1  -0.067496  0  -0.078703  -0.086707  0  3.980834  0
C  C127  1  0.86610667  0.46020736  0.67391491  1  -0.057326  0  -0.078709  -0.086798  0  3.980737  0
C  C128  1  0.13412866  0.59410063  0.53978609  1  -0.057631  0  -0.078727  -0.086919  0  3.980744  0
C  C129  1  0.13389355  0.45997917  0.40589793  1  -0.01063  0  -0.078716  -0.086763  0  3.980785  0
O  O130  1  0.47545229  0.94461884  0.46733603  1  -1.138346  0  -0.311319  -0.543245  0  2.298977  0
O  O131  1  0.58804739  0.53266618  0.94278962  1  -1.13865  0  -0.311324  -0.543205  0  2.29868  0
O  O132  1  0.52454476  0.05721083  0.53083472  1  -1.139981  0  -0.311315  -0.543233  0  2.298614  0
O  O133  1  0.41195323  0.46916680  0.05538033  1  -1.136119  0  -0.311306  -0.543257  0  2.298897  0
O  O134  1  0.58804747  0.05538100  0.46916627  1  -1.135943  0  -0.311312  -0.543254  0  2.298997  0
O  O135  1  0.52454701  0.46733659  0.94461791  1  -1.13836  0  -0.311313  -0.543217  0  2.299011  0
O  O136  1  0.41195196  0.94278951  0.53266633  1  -1.138654  0  -0.311348  -0.54322  0  2.298635  0
O  O137  1  0.47545518  0.53083645  0.05721005  1  -1.139979  0  -0.311318  -0.543233  0  2.298675  0
O  O138  1  0.53269842  0.93467940  0.53432030  1  -1.150823  0  -0.311575  -0.543091  0  2.270269  0
O  O139  1  0.53100321  0.46568458  0.06702024  1  -1.150099  0  -0.31166  -0.543337  0  2.269736  0
O  O140  1  0.46729266  0.93298080  0.59802610  1  -1.151409  0  -0.31173  -0.543225  0  2.269894  0
O  O141  1  0.46899747  0.40197744  0.06531939  1  -1.150924  0  -0.311605  -0.543248  0  2.270123  0
O  O142  1  0.53100279  0.06532009  0.40197717  1  -1.150947  0  -0.311597  -0.543253  0  2.270196  0
O  O143  1  0.46730053  0.53431992  0.93468003  1  -1.150824  0  -0.311599  -0.543094  0  2.270245  0
O  O144  1  0.46899512  0.06701882  0.46568462  1  -1.150048  0  -0.311666  -0.543316  0  2.269588  0
O  O145  1  0.53270791  0.59802686  0.93297933  1  -1.151695  0  -0.311694  -0.543195  0  2.269902  0
O  O146  1  0.94366030  0.46249739  0.59375458  1  -1.154754  0  -0.316255  -0.552114  0  2.284728  0
O  O147  1  0.94374874  0.40624621  0.53741417  1  -1.152543  0  -0.316219  -0.552096  0  2.284727  0
O  O148  1  0.05634031  0.46258653  0.48116184  1  -1.15661  0  -0.316193  -0.552053  0  2.28475  0
O  O149  1  0.05625187  0.51883734  0.53750209  1  -1.154615  0  -0.316262  -0.552076  0  2.284733  0
O  O150  1  0.94374759  0.53750066  0.51883960  1  -1.154604  0  -0.316234  -0.552104  0  2.284848  0
O  O151  1  0.05633956  0.59375279  0.46249934  1  -1.154819  0  -0.316206  -0.552044  0  2.284892  0
O  O152  1  0.05625144  0.53741333  0.40624653  1  -1.152933  0  -0.316195  -0.552068  0  2.284885  0
O  O153  1  0.94365868  0.48116042  0.46258771  1  -1.156643  0  -0.316245  -0.552117  0  2.284897  0
F  F154  1  0.64308315  0.77746271  0.72354595  1  -0.612939  0  -0.093658  -0.112375  0  1.346856  0
F  F155  1  0.49899178  0.27645226  0.36662946  1  -0.613789  0  -0.093695  -0.112428  0  1.346861  0
F  F156  1  0.35691938  0.63336965  0.86562021  1  -0.620387  0  -0.093635  -0.112365  0  1.3469  0
F  F157  1  0.50100929  0.13438024  0.22253906  1  -0.614043  0  -0.093646  -0.112362  0  1.346977  0
F  F158  1  0.49899050  0.22253953  0.13437966  1  -0.614064  0  -0.093692  -0.11242  0  1.34693  0
F  F159  1  0.35691701  0.72354636  0.77746258  1  -0.612941  0  -0.09363  -0.11235  0  1.346878  0
F  F160  1  0.50100899  0.36662951  0.27645142  1  -0.61377  0  -0.093634  -0.112339  0  1.346904  0
F  F161  1  0.64308038  0.86562038  0.63336945  1  -0.620388  0  -0.093638  -0.112353  0  1.346955  0
F  F162  1  0.24525604  0.83355203  0.53711912  1  -0.612248  0  -0.088669  -0.104344  0  1.356588  0
F  F163  1  0.62932718  0.46288081  0.78237649  1  -0.616813  0  -0.088666  -0.104358  0  1.356577  0
F  F164  1  0.75474300  0.21762343  0.41170623  1  -0.615796  0  -0.088687  -0.104384  0  1.356573  0
F  F165  1  0.37067264  0.58829505  0.16644813  1  -0.611853  0  -0.088703  -0.104414  0  1.356543  0
F  F166  1  0.62932544  0.16644575  0.58829692  1  -0.611896  0  -0.088661  -0.104336  0  1.356603  0
F  F167  1  0.75474364  0.53712006  0.83355169  1  -0.612268  0  -0.088661  -0.104339  0  1.356575  0
F  F168  1  0.37067201  0.78237436  0.46288392  1  -0.616829  0  -0.088676  -0.104382  0  1.356563  0
F  F169  1  0.24525698  0.41170585  0.21762254  1  -0.615829  0  -0.088703  -0.104389  0  1.356596  0
F  F170  1  0.31880769  0.90852703  0.53669541  1  -0.609225  0  -0.086078  -0.095786  0  1.382636  0
F  F171  1  0.55477586  0.46330205  0.85550768  1  -0.609311  0  -0.08611  -0.095859  0  1.382535  0
F  F172  1  0.68119095  0.14449490  0.41028323  1  -0.605458  0  -0.086072  -0.095788  0  1.382652  0
F  F173  1  0.44522357  0.58971874  0.09147264  1  -0.607929  0  -0.086057  -0.095788  0  1.382542  0
F  F174  1  0.55477486  0.09147244  0.58971756  1  -0.607947  0  -0.086102  -0.095833  0  1.382549  0
F  F175  1  0.68119282  0.53670063  0.90852348  1  -0.609207  0  -0.086116  -0.095889  0  1.382467  0
F  F176  1  0.44522259  0.85550522  0.46330583  1  -0.609205  0  -0.086042  -0.095768  0  1.382625  0
F  F177  1  0.31880977  0.41028421  0.14449348  1  -0.605461  0  -0.086072  -0.095806  0  1.382589  0
