# generated using pymatgen
data_TbH9C9(NO3)3
_symmetry_space_group_name_H-M   'P 1'
_cell_length_a   6.04908095
_cell_length_b   10.34223217
_cell_length_c   18.95358534
_cell_angle_alpha   89.99994346
_cell_angle_beta   89.99986503
_cell_angle_gamma   89.98911895
_symmetry_Int_Tables_number   1
_chemical_formula_structural   TbH9C9(NO3)3
_chemical_formula_sum   'Tb4 H36 C36 N12 O36'
_cell_volume   1185.75522396
_cell_formula_units_Z   4
loop_
 _symmetry_equiv_pos_site_id
 _symmetry_equiv_pos_as_xyz
  1  'x, y, z'
loop_
 _atom_site_type_symbol
 _atom_site_label
 _atom_site_symmetry_multiplicity
 _atom_site_fract_x
 _atom_site_fract_y
 _atom_site_fract_z
 _atom_site_occupancy
 _atom_site_hle17_bader_spin_density
 _atom_site_hle17_ddec_charge
 _atom_site_hle17_ddec_spin_density
 _atom_site_hle17_ddec_sum_bond_order
 _atom_site_hle17_magmom
 _atom_site_hse06_10hf_bader_spin_density
 _atom_site_hse06_10hf_ddec_charge
 _atom_site_hse06_10hf_ddec_spin_density
 _atom_site_hse06_10hf_ddec_sum_bond_order
 _atom_site_hse06_10hf_magmom
 _atom_site_hse06_bader_spin_density
 _atom_site_hse06_ddec_charge
 _atom_site_hse06_ddec_spin_density
 _atom_site_hse06_ddec_sum_bond_order
 _atom_site_hse06_magmom
 _atom_site_pbe_bader_spin_density
 _atom_site_pbe_cm5_charge
 _atom_site_pbe_ddec_charge
 _atom_site_pbe_ddec_spin_density
 _atom_site_pbe_ddec_sum_bond_order
 _atom_site_pbe_magmom
Tb  Tb0  1  0.74010864  0.81029061  0.40303987  1  0  2.200742  0  1.608477  0  0  2.023131  0  2.100353  0  0  2.069431  0  2.062489  0  0  1.484291  1.988161  0  2.129923  0
Tb  Tb1  1  0.75989083  0.68971000  0.90303975  1  0  2.200721  0  1.608542  0  0  2.023092  0  2.100451  0  0  2.069392  0  2.062591  0  0  1.484301  1.9881  0  2.130056  0
Tb  Tb2  1  0.25988998  0.18970936  0.59696026  1  0  2.200723  0  1.608497  0  0  2.023091  0  2.100411  0  0  2.069404  0  2.062528  0  0  1.48431  1.988129  0  2.129969  0
Tb  Tb3  1  0.24011109  0.31029191  0.09695984  1  0  2.200761  0  1.60846  0  0  2.023155  0  2.100343  0  0  2.069461  0  2.06247  0  0  1.484335  1.988165  0  2.129945  0
H  H4  1  0.12074156  0.50724922  0.54245022  1  0  0.104761  0  0.942117  0  0  0.106364  0  1.013966  0  0  0.110132  0  1.010562  0  0  0.12946  0.103419  0  1.017056  0
H  H5  1  0.37926337  0.99274971  0.04244802  1  0  0.104729  0  0.942153  0  0  0.106336  0  1.013988  0  0  0.110101  0  1.010588  0  0  0.129444  0.103388  0  1.017077  0
H  H6  1  0.87926203  0.49274883  0.45755043  1  0  0.104738  0  0.942117  0  0  0.106339  0  1.013974  0  0  0.110116  0  1.010546  0  0  0.129445  0.103391  0  1.017064  0
H  H7  1  0.62074186  0.00725124  0.95755316  1  0  0.104721  0  0.942198  0  0  0.10636  0  1.014002  0  0  0.110121  0  1.010614  0  0  0.129453  0.103413  0  1.01709  0
H  H8  1  0.51771052  0.76325100  0.11795776  1  0  0.095592  0  0.923372  0  0  0.102429  0  0.985957  0  0  0.106053  0  0.98295  0  0  0.122756  0.099728  0  0.98821  0
H  H9  1  0.98228611  0.73674722  0.61795797  1  0  0.095608  0  0.923351  0  0  0.102451  0  0.98593  0  0  0.106074  0  0.982923  0  0  0.12275  0.099748  0  0.988188  0
H  H10  1  0.48228810  0.23674897  0.88204132  1  0  0.095588  0  0.92337  0  0  0.102429  0  0.985949  0  0  0.106051  0  0.982941  0  0  0.122754  0.099727  0  0.988202  0
H  H11  1  0.01771420  0.26324599  0.38204162  1  0  0.095592  0  0.923324  0  0  0.102426  0  0.985917  0  0  0.106046  0  0.982918  0  0  0.122721  0.099729  0  0.988158  0
H  H12  1  0.11504153  0.95294577  0.14970488  1  0  0.085371  0  0.959183  0  0  0.091138  0  1.028588  0  0  0.093555  0  1.027011  0  0  0.119582  0.089443  0  1.029546  0
H  H13  1  0.38495599  0.54705489  0.64970633  1  0  0.085351  0  0.959178  0  0  0.091128  0  1.028589  0  0  0.093544  0  1.027011  0  0  0.119593  0.089464  0  1.02951  0
H  H14  1  0.88495708  0.04705614  0.85029419  1  0  0.085382  0  0.959175  0  0  0.091152  0  1.028567  0  0  0.093569  0  1.02699  0  0  0.119592  0.089456  0  1.029526  0
H  H15  1  0.61504430  0.45294219  0.35029432  1  0  0.085385  0  0.959216  0  0  0.091157  0  1.028577  0  0  0.093574  0  1.026999  0  0  0.11957  0.089459  0  1.029539  0
H  H16  1  0.87154042  0.58626289  0.30158678  1  0  0.437765  0  0.858066  0  0  0.40433  0  0.926167  0  0  0.415431  0  0.910007  0  0  0.29788  0.396474  0  0.937573  0
H  H17  1  0.62846145  0.91373888  0.80158822  1  0  0.437749  0  0.858089  0  0  0.404303  0  0.926209  0  0  0.4154  0  0.910054  0  0  0.297877  0.396446  0  0.937615  0
H  H18  1  0.12846318  0.41373516  0.69841387  1  0  0.437737  0  0.858111  0  0  0.404284  0  0.92624  0  0  0.41539  0  0.910071  0  0  0.297862  0.396426  0  0.937649  0
H  H19  1  0.37153716  0.08626302  0.19841348  1  0  0.437786  0  0.858049  0  0  0.404348  0  0.926155  0  0  0.415447  0  0.909998  0  0  0.297904  0.396491  0  0.937562  0
H  H20  1  0.09124699  0.64241781  0.33213537  1  0  0.441496  0  0.828146  0  0  0.40926  0  0.907565  0  0  0.420577  0  0.890927  0  0  0.305748  0.401033  0  0.919088  0
H  H21  1  0.40875415  0.85758060  0.83213558  1  0  0.441495  0  0.828157  0  0  0.409255  0  0.907574  0  0  0.420571  0  0.890938  0  0  0.305751  0.401027  0  0.919104  0
H  H22  1  0.90875660  0.35757927  0.66786529  1  0  0.44148  0  0.828202  0  0  0.409236  0  0.907603  0  0  0.420553  0  0.890973  0  0  0.305744  0.401007  0  0.91914  0
H  H23  1  0.59124447  0.14241938  0.16786666  1  0  0.441479  0  0.828178  0  0  0.409246  0  0.907586  0  0  0.420563  0  0.890948  0  0  0.305749  0.401018  0  0.919112  0
H  H24  1  0.45152780  0.01718030  0.34390099  1  0  0.432664  0  0.868192  0  0  0.400558  0  0.93335  0  0  0.412555  0  0.915899  0  0  0.295955  0.392013  0  0.945778  0
H  H25  1  0.04847476  0.48281957  0.84390193  1  0  0.432687  0  0.868161  0  0  0.400579  0  0.93332  0  0  0.412581  0  0.915862  0  0  0.295969  0.392033  0  0.94575  0
H  H26  1  0.54847412  0.98282065  0.65609967  1  0  0.432651  0  0.868205  0  0  0.400543  0  0.933364  0  0  0.412538  0  0.915916  0  0  0.295946  0.391997  0  0.945795  0
H  H27  1  0.95152716  0.51718138  0.15609873  1  0  0.432637  0  0.868238  0  0  0.400535  0  0.933385  0  0  0.412533  0  0.915934  0  0  0.295954  0.391989  0  0.945814  0
H  H28  1  0.68626840  0.07565011  0.34581450  1  0  0.436989  0  0.856394  0  0  0.408249  0  0.916815  0  0  0.418489  0  0.901817  0  0  0.300068  0.400999  0  0.927419  0
H  H29  1  0.81373299  0.42435306  0.84581528  1  0  0.436985  0  0.856404  0  0  0.408252  0  0.916809  0  0  0.418492  0  0.901813  0  0  0.300098  0.401003  0  0.927412  0
H  H30  1  0.31373352  0.92435083  0.65418562  1  0  0.437016  0  0.856368  0  0  0.408264  0  0.916807  0  0  0.418505  0  0.901808  0  0  0.300081  0.401013  0  0.927414  0
H  H31  1  0.18626894  0.57564692  0.15418485  1  0  0.436983  0  0.85641  0  0  0.408252  0  0.916811  0  0  0.418492  0  0.901814  0  0  0.300099  0.401003  0  0.927413  0
H  H32  1  0.70484359  0.02342666  0.51731241  1  0  0.459969  0  0.830673  0  0  0.429562  0  0.891279  0  0  0.440944  0  0.874791  0  0  0.311671  0.42156  0  0.90283  0
H  H33  1  0.79515858  0.47657419  0.01731239  1  0  0.459934  0  0.830722  0  0  0.429522  0  0.891337  0  0  0.440904  0  0.874849  0  0  0.311658  0.42152  0  0.902888  0
H  H34  1  0.29515834  0.97657235  0.48268772  1  0  0.459943  0  0.830698  0  0  0.429547  0  0.891297  0  0  0.44093  0  0.874808  0  0  0.311691  0.421546  0  0.902847  0
H  H35  1  0.20484003  0.52342675  0.98268721  1  0  0.459948  0  0.830697  0  0  0.429553  0  0.891292  0  0  0.440936  0  0.874803  0  0  0.311675  0.421552  0  0.902841  0
H  H36  1  0.90371981  0.93597591  0.53809232  1  0  0.444353  0  0.8222  0  0  0.417512  0  0.890877  0  0  0.427066  0  0.876546  0  0  0.322622  0.410719  0  0.90042  0
H  H37  1  0.59628401  0.56402536  0.03809373  1  0  0.444286  0  0.822195  0  0  0.417439  0  0.890965  0  0  0.426993  0  0.876634  0  0  0.322567  0.410646  0  0.900443  0
H  H38  1  0.09628378  0.06402407  0.46190780  1  0  0.444306  0  0.822166  0  0  0.417459  0  0.890938  0  0  0.427013  0  0.876606  0  0  0.322608  0.410665  0  0.900417  0
H  H39  1  0.40371956  0.43597752  0.96190850  1  0  0.44437  0  0.822175  0  0  0.417526  0  0.890861  0  0  0.427081  0  0.876528  0  0  0.322641  0.410732  0  0.900404  0
C  C40  1  0.26203524  0.73294733  0.47381929  1  0  0.681036  0  3.863055  0  0  0.625725  0  4.158967  0  0  0.661511  0  4.146973  0  0  0.240187  0.601556  0  4.166159  0
C  C41  1  0.23796650  0.76705276  0.97381862  1  0  0.680998  0  3.863165  0  0  0.62565  0  4.159139  0  0  0.661426  0  4.147169  0  0  0.240137  0.601482  0  4.16633  0
C  C42  1  0.73796504  0.26705168  0.52618136  1  0  0.680971  0  3.863229  0  0  0.62569  0  4.159088  0  0  0.661474  0  4.147096  0  0  0.240151  0.601522  0  4.166281  0
C  C43  1  0.76203542  0.23294819  0.02618045  1  0  0.68102  0  3.86311  0  0  0.625728  0  4.158978  0  0  0.661513  0  4.146987  0  0  0.24015  0.60156  0  4.16617  0
C  C44  1  0.38477926  0.60847793  0.48742093  1  0  0.082721  0  3.687367  0  0  0.084236  0  3.939552  0  0  0.083979  0  3.953303  0  0  0.139299  0.084156  0  3.930638  0
C  C45  1  0.11522405  0.89151924  0.98742134  1  0  0.082748  0  3.687249  0  0  0.084284  0  3.939404  0  0  0.084021  0  3.953174  0  0  0.139339  0.084203  0  3.930485  0
C  C46  1  0.61522269  0.39151818  0.51257814  1  0  0.082716  0  3.687281  0  0  0.084226  0  3.939439  0  0  0.083962  0  3.953202  0  0  0.139304  0.084146  0  3.930519  0
C  C47  1  0.88478118  0.10848171  0.01257879  1  0  0.082733  0  3.687263  0  0  0.084273  0  3.939391  0  0  0.084009  0  3.953155  0  0  0.13934  0.084192  0  3.930473  0
C  C48  1  0.28972768  0.50383928  0.52282643  1  0  0.108162  0  3.647919  0  0  0.071935  0  3.911828  0  0  0.076222  0  3.924031  0  0  0.078455  0.068632  0  3.904447  0
C  C49  1  0.21027739  0.99616065  0.02282541  1  0  0.108165  0  3.647909  0  0  0.071948  0  3.911804  0  0  0.076239  0  3.924002  0  0  0.07844  0.068652  0  3.904409  0
C  C50  1  0.71027591  0.49615974  0.47717422  1  0  0.108211  0  3.647865  0  0  0.071979  0  3.911778  0  0  0.076269  0  3.923986  0  0  0.078475  0.068685  0  3.904383  0
C  C51  1  0.78972784  0.00384030  0.97717471  1  0  0.108229  0  3.647883  0  0  0.071974  0  3.911781  0  0  0.076266  0  3.923975  0  0  0.078497  0.068676  0  3.904388  0
C  C52  1  0.42811151  0.71945655  0.26369434  1  0  0.627458  0  3.957066  0  0  0.572903  0  4.264645  0  0  0.606358  0  4.256673  0  0  0.208335  0.550736  0  4.268235  0
C  C53  1  0.07188187  0.78054389  0.76369432  1  0  0.627378  0  3.957035  0  0  0.572872  0  4.264534  0  0  0.606327  0  4.256565  0  0  0.208351  0.550707  0  4.268123  0
C  C54  1  0.57189042  0.28054343  0.73630473  1  0  0.627488  0  3.956939  0  0  0.572919  0  4.264536  0  0  0.606374  0  4.256561  0  0  0.208352  0.550755  0  4.268121  0
C  C55  1  0.92811013  0.21945800  0.23630422  1  0  0.62754  0  3.956861  0  0  0.573012  0  4.264377  0  0  0.606469  0  4.2564  0  0  0.208402  0.550845  0  4.267968  0
C  C56  1  0.61426549  0.78929739  0.22742143  1  0  0.079302  0  3.734665  0  0  0.082662  0  3.981967  0  0  0.081247  0  3.99788  0  0  0.124112  0.083057  0  3.971027  0
C  C57  1  0.88573032  0.71070256  0.72742121  1  0  0.079403  0  3.73443  0  0  0.082716  0  3.981793  0  0  0.0813  0  3.997706  0  0  0.12409  0.08311  0  3.970854  0
C  C58  1  0.38573645  0.21069969  0.77257764  1  0  0.079287  0  3.734545  0  0  0.082637  0  3.981877  0  0  0.081226  0  3.997785  0  0  0.124085  0.083031  0  3.970935  0
C  C59  1  0.11426499  0.28929837  0.27257733  1  0  0.079278  0  3.734696  0  0  0.082631  0  3.98199  0  0  0.081219  0  3.9979  0  0  0.124094  0.083026  0  3.971048  0
C  C60  1  0.64085234  0.80170138  0.15439830  1  0  0.106143  0  3.607877  0  0  0.07138  0  3.870962  0  0  0.077067  0  3.88242  0  0  0.071428  0.067746  0  3.863101  0
C  C61  1  0.85914568  0.69829581  0.65439916  1  0  0.106036  0  3.607976  0  0  0.071267  0  3.871098  0  0  0.076952  0  3.882558  0  0  0.07137  0.067631  0  3.863238  0
C  C62  1  0.35914629  0.19829666  0.84560077  1  0  0.106117  0  3.607953  0  0  0.071356  0  3.871052  0  0  0.077046  0  3.882508  0  0  0.071423  0.067722  0  3.86319  0
C  C63  1  0.14085131  0.30170029  0.34560044  1  0  0.106026  0  3.607922  0  0  0.071254  0  3.871026  0  0  0.076937  0  3.882488  0  0  0.071395  0.067621  0  3.863166  0
C  C64  1  0.96813990  0.90730911  0.17146035  1  0  0.108462  0  3.630558  0  0  0.071642  0  3.892824  0  0  0.077463  0  3.906106  0  0  0.066463  0.067913  0  3.883971  0
C  C65  1  0.53185633  0.59268804  0.67146152  1  0  0.108591  0  3.630592  0  0  0.071694  0  3.892876  0  0  0.077518  0  3.906155  0  0  0.06644  0.067944  0  3.88401  0
C  C66  1  0.03185542  0.09268989  0.82853925  1  0  0.108388  0  3.630604  0  0  0.071571  0  3.8929  0  0  0.077393  0  3.906184  0  0  0.066382  0.067842  0  3.884047  0
C  C67  1  0.46814064  0.40730999  0.32853914  1  0  0.108293  0  3.630671  0  0  0.071548  0  3.892873  0  0  0.077371  0  3.906157  0  0  0.06643  0.067822  0  3.884022  0
C  C68  1  0.93996096  0.89974287  0.24436531  1  0  0.073591  0  3.754759  0  0  0.078346  0  3.999569  0  0  0.076684  0  4.015158  0  0  0.123665  0.078573  0  3.989634  0
C  C69  1  0.56003641  0.60025126  0.74436592  1  0  0.073458  0  3.754815  0  0  0.078382  0  3.999468  0  0  0.07672  0  4.015049  0  0  0.123647  0.078607  0  3.989537  0
C  C70  1  0.06003932  0.10025614  0.75563429  1  0  0.073589  0  3.754699  0  0  0.078339  0  3.999535  0  0  0.076674  0  4.015126  0  0  0.123704  0.078567  0  3.989598  0
C  C71  1  0.43995726  0.39974774  0.25563421  1  0  0.073649  0  3.754561  0  0  0.078314  0  3.999449  0  0  0.076648  0  4.015045  0  0  0.123638  0.078539  0  3.989514  0
C  C72  1  0.09655981  0.95466912  0.29798290  1  0  0.650294  0  3.899929  0  0  0.59155  0  4.205778  0  0  0.625501  0  4.197318  0  0  0.22387  0.568796  0  4.210457  0
C  C73  1  0.40344325  0.54532644  0.79798540  1  0  0.650354  0  3.90008  0  0  0.591527  0  4.205979  0  0  0.625491  0  4.197511  0  0  0.223911  0.568774  0  4.210655  0
C  C74  1  0.90343879  0.04533472  0.70201722  1  0  0.650345  0  3.899843  0  0  0.591588  0  4.205711  0  0  0.625536  0  4.197253  0  0  0.223905  0.568834  0  4.21039  0
C  C75  1  0.59655535  0.45467740  0.20201420  1  0  0.650218  0  3.899892  0  0  0.591521  0  4.205714  0  0  0.625477  0  4.197253  0  0  0.223904  0.568769  0  4.210391  0
N  N76  1  0.59508066  0.60383470  0.46479399  1  0  -0.346039  0  3.244092  0  0  -0.307147  0  3.519305  0  0  -0.314601  0  3.532731  0  0  -0.345815  -0.301664  0  3.510343  0
N  N77  1  0.90492333  0.89616485  0.96479366  1  0  -0.346066  0  3.244041  0  0  -0.307192  0  3.519278  0  0  -0.314638  0  3.532701  0  0  -0.345846  -0.301706  0  3.510316  0
N  N78  1  0.40492294  0.39616335  0.53520613  1  0  -0.346035  0  3.244031  0  0  -0.307143  0  3.519246  0  0  -0.314594  0  3.532671  0  0  -0.345832  -0.301661  0  3.510292  0
N  N79  1  0.09508026  0.10383513  0.03520700  1  0  -0.346008  0  3.24402  0  0  -0.307138  0  3.519236  0  0  -0.314587  0  3.532662  0  0  -0.345818  -0.301653  0  3.510274  0
N  N80  1  0.76439926  0.83943684  0.27125529  1  0  -0.389511  0  3.368475  0  0  -0.341334  0  3.609089  0  0  -0.349137  0  3.626256  0  0  -0.373197  -0.335523  0  3.597661  0
N  N81  1  0.73559624  0.66056013  0.77125573  1  0  -0.389493  0  3.36832  0  0  -0.341352  0  3.608903  0  0  -0.349152  0  3.626068  0  0  -0.373172  -0.335538  0  3.597473  0
N  N82  1  0.23560267  0.16056217  0.72874431  1  0  -0.389475  0  3.368477  0  0  -0.341277  0  3.609083  0  0  -0.349081  0  3.62625  0  0  -0.373178  -0.335468  0  3.597653  0
N  N83  1  0.26439577  0.33943983  0.22874439  1  0  -0.389419  0  3.368438  0  0  -0.341208  0  3.609064  0  0  -0.349012  0  3.626234  0  0  -0.373114  -0.335394  0  3.597634  0
N  N84  1  0.81867328  0.85955904  0.12646735  1  0  -0.232935  0  3.01123  0  0  -0.199825  0  3.28444  0  0  -0.208032  0  3.298454  0  0  -0.290365  -0.19429  0  3.274888  0
N  N85  1  0.68132328  0.64044013  0.62646838  1  0  -0.232912  0  3.011344  0  0  -0.199807  0  3.284587  0  0  -0.208011  0  3.2986  0  0  -0.290302  -0.194272  0  3.275045  0
N  N86  1  0.18132369  0.14044093  0.87353172  1  0  -0.23289  0  3.011355  0  0  -0.199796  0  3.284583  0  0  -0.208005  0  3.298598  0  0  -0.290347  -0.194261  0  3.27503  0
N  N87  1  0.31867703  0.35955308  0.37353228  1  0  -0.232826  0  3.011276  0  0  -0.199736  0  3.284451  0  0  -0.207945  0  3.298472  0  0  -0.290338  -0.194202  0  3.274898  0
O  O88  1  0.38564991  0.82955065  0.46079371  1  0  -0.670167  0  2.110479  0  0  -0.606418  0  2.350516  0  0  -0.632691  0  2.340606  0  0  -0.349511  -0.587947  0  2.356728  0
O  O89  1  0.11435027  0.67045042  0.96079477  1  0  -0.670118  0  2.110466  0  0  -0.606355  0  2.350517  0  0  -0.632624  0  2.340612  0  0  -0.34948  -0.587886  0  2.356732  0
O  O90  1  0.61434872  0.17044738  0.53920483  1  0  -0.670168  0  2.110504  0  0  -0.606425  0  2.350532  0  0  -0.632695  0  2.34062  0  0  -0.349527  -0.587958  0  2.356746  0
O  O91  1  0.88565164  0.32955246  0.03920588  1  0  -0.670267  0  2.110493  0  0  -0.6065  0  2.350487  0  0  -0.632769  0  2.340576  0  0  -0.349555  -0.588027  0  2.356699  0
O  O92  1  0.05334271  0.73207699  0.47710740  1  0  -0.671417  0  1.982152  0  0  -0.616514  0  2.233724  0  0  -0.642413  0  2.224462  0  0  -0.350322  -0.598019  0  2.239509  0
O  O93  1  0.44666231  0.76792310  0.97710552  1  0  -0.67143  0  1.982211  0  0  -0.616506  0  2.2338  0  0  -0.6424  0  2.224543  0  0  -0.350319  -0.598009  0  2.239583  0
O  O94  1  0.94665922  0.26792202  0.52289483  1  0  -0.671412  0  1.982249  0  0  -0.616485  0  2.233771  0  0  -0.642384  0  2.224507  0  0  -0.350288  -0.597992  0  2.239555  0
O  O95  1  0.55334457  0.23207786  0.02289302  1  0  -0.671367  0  1.982161  0  0  -0.61646  0  2.233705  0  0  -0.642356  0  2.224442  0  0  -0.350279  -0.597964  0  2.23949  0
O  O96  1  0.44260457  0.71332697  0.33111799  1  0  -0.716181  0  2.03377  0  0  -0.661435  0  2.288142  0  0  -0.688884  0  2.282317  0  0  -0.367811  -0.641971  0  2.290983  0
O  O97  1  0.05739327  0.78667337  0.83111745  1  0  -0.716147  0  2.033752  0  0  -0.661422  0  2.288114  0  0  -0.688872  0  2.282291  0  0  -0.367824  -0.641956  0  2.290955  0
O  O98  1  0.55739240  0.28667204  0.66888160  1  0  -0.716188  0  2.033765  0  0  -0.661446  0  2.288179  0  0  -0.688896  0  2.282356  0  0  -0.367821  -0.641984  0  2.291018  0
O  O99  1  0.94260865  0.21332854  0.16888056  1  0  -0.716159  0  2.033585  0  0  -0.661482  0  2.288082  0  0  -0.688931  0  2.282256  0  0  -0.367816  -0.642015  0  2.290924  0
O  O100  1  0.27291516  0.67232454  0.22784895  1  0  -0.618604  0  1.969378  0  0  -0.565465  0  2.195728  0  0  -0.590265  0  2.188308  0  0  -0.308222  -0.548027  0  2.199967  0
O  O101  1  0.22708014  0.82767500  0.72784773  1  0  -0.618603  0  1.969415  0  0  -0.565438  0  2.195721  0  0  -0.590238  0  2.188302  0  0  -0.308206  -0.547999  0  2.199962  0
O  O102  1  0.72708180  0.32767736  0.77214959  1  0  -0.618589  0  1.969371  0  0  -0.565443  0  2.195734  0  0  -0.590241  0  2.188313  0  0  -0.308215  -0.548006  0  2.19997  0
O  O103  1  0.77291519  0.17232303  0.27214817  1  0  -0.618614  0  1.969427  0  0  -0.565472  0  2.195762  0  0  -0.590272  0  2.18834  0  0  -0.308245  -0.548034  0  2.2  0
O  O104  1  0.04446299  0.93685281  0.36235597  1  0  -0.699036  0  2.044252  0  0  -0.643185  0  2.301134  0  0  -0.667796  0  2.291195  0  0  -0.375987  -0.625908  0  2.30742  0
O  O105  1  0.45553627  0.56314843  0.86235789  1  0  -0.699064  0  2.044419  0  0  -0.64319  0  2.301309  0  0  -0.667799  0  2.291363  0  0  -0.376025  -0.625909  0  2.307594  0
O  O106  1  0.95552072  0.06315390  0.63764310  1  0  -0.699004  0  2.044193  0  0  -0.64318  0  2.301132  0  0  -0.667791  0  2.291191  0  0  -0.375991  -0.625907  0  2.30742  0
O  O107  1  0.54446066  0.43685927  0.13764224  1  0  -0.698966  0  2.044386  0  0  -0.643134  0  2.301249  0  0  -0.667743  0  2.291304  0  0  -0.376023  -0.625856  0  2.307535  0
O  O108  1  0.26759063  0.01390071  0.27684567  1  0  -0.614215  0  2.008797  0  0  -0.5485  0  2.225998  0  0  -0.575299  0  2.218546  0  0  -0.288311  -0.53015  0  2.230467  0
O  O109  1  0.23241245  0.48609444  0.77684911  1  0  -0.614223  0  2.008818  0  0  -0.548482  0  2.226029  0  0  -0.575317  0  2.218599  0  0  -0.288318  -0.530132  0  2.230504  0
O  O110  1  0.73240963  0.98610120  0.72315604  1  0  -0.614281  0  2.008779  0  0  -0.548541  0  2.225971  0  0  -0.575327  0  2.218509  0  0  -0.288358  -0.53019  0  2.230439  0
O  O111  1  0.76758946  0.51390940  0.22315207  1  0  -0.614189  0  2.008701  0  0  -0.5485  0  2.22588  0  0  -0.575312  0  2.218438  0  0  -0.288315  -0.530148  0  2.230349  0
O  O112  1  0.93625118  0.62511868  0.34495532  1  0  -0.897121  0  1.872584  0  0  -0.850912  0  2.086053  0  0  -0.870914  0  2.055225  0  0  -0.618261  -0.836353  0  2.107031  0
O  O113  1  0.56374873  0.87488011  0.84495578  1  0  -0.897099  0  1.872599  0  0  -0.850894  0  2.086094  0  0  -0.870896  0  2.055278  0  0  -0.618271  -0.83633  0  2.107072  0
O  O114  1  0.06375241  0.37487937  0.65504533  1  0  -0.897089  0  1.872647  0  0  -0.850863  0  2.086147  0  0  -0.870879  0  2.055309  0  0  -0.618244  -0.836304  0  2.107136  0
O  O115  1  0.43625154  0.12512180  0.15504593  1  0  -0.89715  0  1.872577  0  0  -0.850943  0  2.08606  0  0  -0.870949  0  2.055249  0  0  -0.618295  -0.836382  0  2.107042  0
O  O116  1  0.58946126  0.01724348  0.37317772  1  0  -0.887341  0  1.869554  0  0  -0.838196  0  2.061835  0  0  -0.858254  0  2.030841  0  0  -0.647176  -0.823557  0  2.083467  0
O  O117  1  0.91053827  0.48275964  0.87317838  1  0  -0.887361  0  1.869563  0  0  -0.838223  0  2.061853  0  0  -0.858279  0  2.03085  0  0  -0.64722  -0.82358  0  2.083487  0
O  O118  1  0.41054065  0.98275843  0.62682241  1  0  -0.887341  0  1.869527  0  0  -0.838187  0  2.061819  0  0  -0.858247  0  2.030827  0  0  -0.647181  -0.823549  0  2.083447  0
O  O119  1  0.08945868  0.51724324  0.12682121  1  0  -0.887322  0  1.869596  0  0  -0.83818  0  2.061877  0  0  -0.858239  0  2.030878  0  0  -0.647223  -0.823538  0  2.083509  0
O  O120  1  0.78354369  0.94185084  0.50409616  1  0  -0.914306  0  1.895996  0  0  -0.863963  0  2.114024  0  0  -0.881959  0  2.080265  0  0  -0.650845  -0.851291  0  2.137019  0
O  O121  1  0.71645543  0.55814855  0.00409537  1  0  -0.914195  0  1.895969  0  0  -0.863863  0  2.114095  0  0  -0.88186  0  2.080337  0  0  -0.650792  -0.851189  0  2.137025  0
O  O122  1  0.21645330  0.05814526  0.49590555  1  0  -0.914218  0  1.895923  0  0  -0.86391  0  2.114016  0  0  -0.88191  0  2.080255  0  0  -0.650859  -0.85124  0  2.136947  0
O  O123  1  0.28354154  0.44185142  0.99590370  1  0  -0.914313  0  1.895982  0  0  -0.863999  0  2.114  0  0  -0.881999  0  2.080235  0  0  -0.65088  -0.851324  0  2.136996  0
