# generated using pymatgen
data_CuH22C24N2O7
_symmetry_space_group_name_H-M   'P 1'
_cell_length_a   6.71957535
_cell_length_b   13.23136995
_cell_length_c   13.38195899
_cell_angle_alpha   111.32988068
_cell_angle_beta   90.00010383
_cell_angle_gamma   89.99990651
_symmetry_Int_Tables_number   1
_chemical_formula_structural   CuH22C24N2O7
_chemical_formula_sum   'Cu2 H44 C48 N4 O14'
_cell_volume   1108.28120597
_cell_formula_units_Z   2
loop_
 _symmetry_equiv_pos_site_id
 _symmetry_equiv_pos_as_xyz
  1  'x, y, z'
loop_
 _atom_site_type_symbol
 _atom_site_label
 _atom_site_symmetry_multiplicity
 _atom_site_fract_x
 _atom_site_fract_y
 _atom_site_fract_z
 _atom_site_occupancy
 _atom_site_hle17_ddec_charge
 _atom_site_hle17_ddec_spin_density
 _atom_site_hle17_ddec_sum_bond_order
 _atom_site_hle17_magmom
 _atom_site_hse06_10hf_ddec_charge
 _atom_site_hse06_10hf_ddec_spin_density
 _atom_site_hse06_10hf_ddec_sum_bond_order
 _atom_site_hse06_10hf_magmom
 _atom_site_hse06_ddec_charge
 _atom_site_hse06_ddec_spin_density
 _atom_site_hse06_ddec_sum_bond_order
 _atom_site_hse06_magmom
 _atom_site_pbe_cm5_charge
 _atom_site_pbe_ddec_charge
 _atom_site_pbe_ddec_spin_density
 _atom_site_pbe_ddec_sum_bond_order
 _atom_site_pbe_magmom
Cu  Cu0  1  0.48598543  0.73134029  0.29373934  1  0.844201  -0.693545  1.784513  -0.511  0.819353  -0.780469  2.169739  -0.628  0.912494  -0.848485  2.101361  -0.717  0.727972  0.763163  -0.733001  2.216683  -0.571
Cu  Cu1  1  0.98599324  0.26865816  0.70625965  1  0.844147  -0.693543  1.784583  -0.511  0.819316  -0.780469  2.16977  -0.628  0.912399  -0.848482  2.101461  -0.717  0.727941  0.763127  -0.733002  2.21668  -0.571
H  H2  1  0.75522991  0.73384604  0.98451047  1  0.097854  0.000449  0.909624  0.0  0.110595  0.000183  0.968729  0.0  0.111941  0.000177  0.967849  0.0  0.11629  0.109711  0.000157  0.969366  0.0
H  H3  1  0.25523597  0.26615417  0.01549193  1  0.097807  0.000449  0.909644  0.0  0.110535  0.000184  0.968742  0.0  0.111881  0.000176  0.967864  0.0  0.116266  0.109656  0.000157  0.969372  0.0
H  H4  1  0.70874585  0.87503675  0.04951165  1  0.081407  0.000475  0.948144  0.0  0.091329  0.000227  1.019279  0.0  0.09182  0.00021  1.019526  0.0  0.107306  0.090992  0.000207  1.019168  0.0
H  H5  1  0.20874987  0.12496512  0.95049429  1  0.081396  0.000475  0.948202  0.0  0.09127  0.000226  1.019362  0.0  0.091762  0.00021  1.019611  0.0  0.107316  0.090935  0.000207  1.019251  0.0
H  H6  1  0.34816049  0.86459003  0.00354016  1  0.109031  1.6e-05  0.950099  0.0  0.120234  -8.7e-05  1.011463  0.0  0.123911  -5.1e-05  1.009216  0.0  0.104465  0.117631  -0.000122  1.013182  0.0
H  H7  1  0.84817725  0.13541013  0.99646081  1  0.109079  1.6e-05  0.950134  0.0  0.12026  -8.7e-05  1.011507  0.0  0.123934  -5.1e-05  1.009264  0.0  0.104476  0.11766  -0.000121  1.013221  0.0
H  H8  1  0.52043921  0.04301386  0.07784763  1  0.087882  -2.4e-05  0.978863  0.0  0.098857  3e-06  1.042695  0.0  0.100989  5e-06  1.042124  0.0  0.097214  0.097186  -2e-06  1.043397  0.0
H  H9  1  0.02044937  0.95698486  0.92215104  1  0.087894  -2.4e-05  0.978997  0.0  0.098926  3e-06  1.042762  0.0  0.101059  5e-06  1.042191  0.0  0.097195  0.097242  -2e-06  1.043476  0.0
H  H10  1  0.83777194  0.99877789  0.20320675  1  0.112571  9e-05  0.960061  0.0  0.124741  -2e-06  1.020658  0.0  0.127829  -4e-06  1.019699  0.0  0.102724  0.122576  2e-06  1.021438  0.0
H  H11  1  0.33778324  0.00122714  0.79679744  1  0.112599  9e-05  0.959941  0.0  0.124778  -2e-06  1.020552  0.0  0.127867  -4e-06  1.019591  0.0  0.10273  0.122609  2e-06  1.021334  0.0
H  H12  1  0.84334526  0.18900823  0.32887775  1  0.109394  0.000102  0.966156  0.0  0.121443  1.1e-05  1.027475  0.0  0.12466  8e-06  1.026329  0.0  0.100908  0.119156  1.3e-05  1.02847  0.0
H  H13  1  0.34335348  0.81099680  0.67112495  1  0.109328  0.000103  0.966285  0.0  0.121411  1e-05  1.027555  0.0  0.124629  8e-06  1.026407  0.0  0.100898  0.119124  1.3e-05  1.028548  0.0
H  H14  1  0.34581052  0.39354052  0.33174646  1  0.117023  0.000102  0.939629  0.0  0.129756  1.9e-05  0.995107  0.0  0.133173  1.8e-05  0.993751  0.0  0.108146  0.127275  2e-05  0.996234  0.0
H  H15  1  0.84582008  0.60646284  0.66824743  1  0.117074  0.000102  0.93963  0.0  0.1298  1.9e-05  0.995109  0.0  0.133224  1.8e-05  0.993749  0.0  0.108158  0.127317  2e-05  0.996238  0.0
H  H16  1  0.51411877  0.23817483  0.19143601  1  0.096225  6e-06  0.944629  0.0  0.106872  1.2e-05  1.006157  0.0  0.109856  1.5e-05  1.004537  0.0  0.101149  0.104675  9e-06  1.007506  0.0
H  H17  1  0.01413063  0.76182469  0.80855995  1  0.096228  6e-06  0.944597  0.0  0.106865  1.2e-05  1.006155  0.0  0.109841  1.5e-05  1.004534  0.0  0.101161  0.104671  9e-06  1.007503  0.0
H  H18  1  0.43038181  0.93611780  0.25277563  1  0.077634  -0.000528  0.983341  -0.001  0.085631  -0.000483  1.049172  -0.001  0.087169  -0.000312  1.048958  -0.001  0.111127  0.084275  -0.000623  1.049573  -0.001
H  H19  1  0.93039192  0.06387987  0.74722228  1  0.077685  -0.000528  0.983283  -0.001  0.085678  -0.000483  1.049114  -0.001  0.087217  -0.000312  1.048904  -0.001  0.111129  0.084322  -0.000623  1.049515  -0.001
H  H20  1  0.43597294  0.13498701  0.36067619  1  0.09398  -0.000479  0.990642  -0.001  0.103896  -0.000409  1.051759  0.0  0.105393  -0.000291  1.054069  0.0  0.099017  0.102697  -0.000506  1.050433  -0.001
H  H21  1  0.93597858  0.86501144  0.63931753  1  0.093918  -0.000478  0.990627  -0.001  0.103889  -0.000409  1.051678  0.0  0.105382  -0.000291  1.053985  0.0  0.098996  0.102682  -0.000506  1.050357  -0.001
H  H22  1  0.47416164  0.19702579  0.56095439  1  0.10625  -0.000255  0.946296  -0.001  0.117102  3.9e-05  1.004848  0.0  0.119781  8.4e-05  1.002431  0.0  0.11144  0.114826  -1.7e-05  1.007128  0.0
H  H23  1  0.97415483  0.80297427  0.43904068  1  0.106228  -0.000255  0.946348  -0.001  0.117077  3.9e-05  1.004901  0.0  0.119756  8.4e-05  1.002484  0.0  0.111466  0.114806  -1.7e-05  1.007184  0.0
H  H24  1  0.50351358  0.05549129  0.64402445  1  0.111451  -0.000442  0.96699  -0.001  0.119282  -0.000396  1.03081  0.0  0.121928  -0.000279  1.030933  0.0  0.105045  0.11735  -0.000491  1.030801  -0.001
H  H25  1  0.00350680  0.94450905  0.35597105  1  0.111419  -0.000442  0.966931  -0.001  0.119228  -0.000396  1.030768  0.0  0.121876  -0.000279  1.030889  0.0  0.105048  0.117291  -0.000491  1.030794  -0.001
H  H26  1  0.50635599  0.85945009  0.52371856  1  0.080178  -0.000551  0.985985  -0.001  0.086854  -0.000494  1.053497  -0.001  0.0888  -0.000316  1.052539  -0.001  0.11129  0.085288  -0.000649  1.054302  -0.001
H  H27  1  0.00635522  0.14054943  0.47627665  1  0.080139  -0.00055  0.986028  -0.001  0.086833  -0.000494  1.053514  -0.001  0.08878  -0.000316  1.052554  -0.001  0.111279  0.08526  -0.000649  1.054329  -0.001
H  H28  1  0.71304970  0.34411469  0.39453675  1  0.080027  -5.1e-05  0.939104  0.0  0.08955  -0.000137  1.007584  0.0  0.090127  -4.7e-05  1.007602  0.0  0.107017  0.089177  -0.000231  1.007575  0.0
H  H29  1  0.21305519  0.65588959  0.60546333  1  0.080123  -5.1e-05  0.938998  0.0  0.089562  -0.000137  1.007543  0.0  0.090135  -4.7e-05  1.007565  0.0  0.107042  0.089191  -0.000231  1.007527  0.0
H  H30  1  0.76730903  0.47651657  0.48570034  1  0.110407  -0.000383  0.927712  0.0  0.116407  -0.00042  0.994954  0.0  0.118858  -0.000248  0.992286  0.0  0.11805  0.114588  -0.000578  0.996971  -0.001
H  H31  1  0.26731462  0.52348526  0.51430265  1  0.110401  -0.000383  0.927689  0.0  0.116386  -0.00042  0.994922  0.0  0.118837  -0.000248  0.992254  0.0  0.118044  0.114564  -0.000578  0.996941  -0.001
H  H32  1  0.40796998  0.55834071  0.08885524  1  0.089727  -0.001036  0.969341  -0.002  0.095339  -0.000814  1.036698  -0.001  0.096795  -0.000555  1.035548  -0.001  0.115769  0.094051  -0.001011  1.037724  -0.002
H  H33  1  0.90797353  0.44165859  0.91114249  1  0.089754  -0.001035  0.969274  -0.002  0.095333  -0.000814  1.036672  -0.001  0.096789  -0.000555  1.035522  -0.001  0.115768  0.094044  -0.001011  1.037696  -0.002
H  H34  1  0.57849606  0.38663376  0.97020986  1  0.121152  -0.000507  0.950565  -0.001  0.130328  -0.000429  1.007931  0.0  0.133718  -0.000303  1.006521  0.0  0.111339  0.127718  -0.00053  1.009306  -0.001
H  H35  1  0.07849956  0.61336573  0.02978914  1  0.121145  -0.000508  0.950562  -0.001  0.130333  -0.000429  1.007911  0.0  0.133723  -0.000303  1.006499  0.0  0.111357  0.127725  -0.00053  1.009283  -0.001
H  H36  1  0.87116325  0.31970653  0.04298254  1  0.096052  -0.000447  0.945965  -0.001  0.107636  -0.000207  1.006294  0.0  0.110765  -7.7e-05  1.003349  0.0  0.107296  0.105245  -0.000338  1.008645  0.0
H  H37  1  0.37117294  0.68029038  0.95701954  1  0.096114  -0.000445  0.945891  -0.001  0.107648  -0.000207  1.006285  0.0  0.11078  -7.7e-05  1.003338  0.0  0.107302  0.10526  -0.000339  1.008636  0.0
H  H38  1  0.98204097  0.42674068  0.23384678  1  0.107055  -0.000543  0.971141  -0.001  0.115041  -0.000482  1.032803  -0.001  0.117528  -0.000347  1.033364  0.0  0.106103  0.113137  -0.000586  1.032691  -0.001
H  H39  1  0.48205179  0.57325535  0.76615433  1  0.107119  -0.000545  0.971102  -0.001  0.115137  -0.000481  1.032715  -0.001  0.117626  -0.000346  1.033273  0.0  0.106137  0.113237  -0.000586  1.032605  -0.001
H  H40  1  0.79659763  0.59398479  0.33940441  1  0.100053  -0.000948  0.933676  -0.002  0.106497  -0.000723  0.998843  -0.002  0.109343  -0.000471  0.994744  -0.001  0.123167  0.104067  -0.000929  1.002252  -0.002
H  H41  1  0.29660562  0.40601539  0.66059503  1  0.100091  -0.000947  0.933571  -0.002  0.106434  -0.000723  0.998886  -0.002  0.109279  -0.000471  0.994788  -0.001  0.123165  0.104007  -0.000929  1.002291  -0.002
H  H42  1  0.14484791  0.65386725  0.28430342  1  0.395784  6e-05  0.924746  0.0  0.366074  9.6e-05  0.990197  0.0  0.377184  0.000134  0.97415  0.0  0.274425  0.358421  4e-05  1.001224  0.0
H  H43  1  0.64485104  0.34613141  0.71569832  1  0.395793  6e-05  0.924738  0.0  0.366074  9.6e-05  0.990204  0.0  0.377185  0.000134  0.974155  0.0  0.274441  0.358425  4e-05  1.001226  0.0
H  H44  1  0.08129157  0.72802751  0.22034401  1  0.422528  5.5e-05  0.881183  0.0  0.398405  6.4e-05  0.935167  0.0  0.409986  5.5e-05  0.91833  0.0  0.28397  0.390507  6.4e-05  0.946641  0.0
H  H45  1  0.58131006  0.27197201  0.77966023  1  0.422567  5.5e-05  0.881166  0.0  0.39837  6.4e-05  0.935228  0.0  0.409948  5.5e-05  0.918395  0.0  0.283962  0.390477  6.4e-05  0.946694  0.0
C  C46  1  0.73503654  0.78662013  0.15654188  1  0.630202  0.008426  3.909402  0.009  0.585926  0.002867  4.221648  0.004  0.621293  0.003363  4.2155  0.004  0.196227  0.562201  0.002114  4.22491  0.004
C  C47  1  0.23505923  0.21337524  0.84345952  1  0.630275  0.008426  3.909777  0.009  0.585926  0.002868  4.222114  0.004  0.621302  0.003361  4.215955  0.004  0.196286  0.562203  0.002114  4.225361  0.004
C  C48  1  0.79420375  0.80598879  0.05453505  1  -0.063045  -0.009136  3.643242  -0.01  -0.123978  -0.005585  3.910602  -0.006  -0.120197  -0.003654  3.91123  -0.004  -0.065906  -0.126594  -0.007213  3.909805  -0.008
C  C49  1  0.29421199  0.19401061  0.94547008  1  -0.062993  -0.009136  3.643213  -0.01  -0.123758  -0.005584  3.9105  -0.006  -0.119986  -0.003654  3.911144  -0.004  -0.065854  -0.126376  -0.007212  3.909704  -0.008
C  C50  1  0.08169582  0.92206395  0.09757149  1  0.281042  0.001463  3.823404  0.001  0.271007  0.000219  4.088562  0.0  0.28407  0.000205  4.102767  0.0  0.083299  0.262004  0.000251  4.078752  0.0
C  C51  1  0.58170795  0.07793881  0.90243316  1  0.28099  0.001457  3.823523  0.001  0.271073  0.000218  4.088587  0.0  0.284136  0.000205  4.102791  0.0  0.083441  0.262066  0.000251  4.078773  0.0
C  C52  1  0.27725720  0.93432954  0.06357984  1  -0.180408  -0.001984  3.763772  -0.002  -0.207425  -0.000449  4.02983  0.0  -0.211811  -0.00027  4.045559  0.0  -0.106538  -0.204461  -0.000744  4.019131  -0.001
C  C53  1  0.77726949  0.06567471  0.93642327  1  -0.180547  -0.001975  3.763716  -0.002  -0.207574  -0.000451  4.029783  0.0  -0.211958  -0.00027  4.045508  0.0  -0.10669  -0.204604  -0.000744  4.019073  -0.001
C  C54  1  0.37099977  0.03321539  0.10467918  1  -0.095105  0.001756  3.784664  0.001  -0.115469  0.000196  4.039224  0.0  -0.113707  0.00021  4.058148  0.0  -0.093206  -0.116381  0.000253  4.02634  0.0
C  C55  1  0.87101347  0.96678313  0.89532123  1  -0.095183  0.001741  3.78486  0.001  -0.115583  0.000201  4.039401  0.0  -0.113824  0.00021  4.058326  0.0  -0.093138  -0.116487  0.000253  4.026514  0.0
C  C56  1  0.27608603  0.12415935  0.18117286  1  0.008492  -0.001813  3.822186  -0.002  0.022997  -0.000299  4.049837  0.0  0.018705  -0.00016  4.074998  0.0  -0.027023  0.025821  -0.00055  4.032653  -0.001
C  C57  1  0.77609379  0.87584329  0.81882893  1  0.008618  -0.001811  3.822276  -0.002  0.023071  -0.000302  4.050001  0.0  0.018782  -0.00016  4.075158  0.0  -0.026994  0.025895  -0.00055  4.032806  -0.001
C  C58  1  0.08124346  0.11082191  0.21857983  1  0.11052  0.001143  3.816255  0.001  0.128734  9.6e-05  4.042053  0.0  0.132235  0.000124  4.067217  0.0  -0.007377  0.126597  0.000103  4.024701  0.0
C  C59  1  0.58125252  0.88917922  0.78142199  1  0.110365  0.001143  3.816268  0.001  0.128621  9.8e-05  4.042046  0.0  0.132119  0.000123  4.067218  0.0  -0.007498  0.126487  0.000103  4.024684  0.0
C  C60  1  0.98596291  0.00812045  0.17465697  1  -0.266047  -0.002089  3.722443  -0.002  -0.294182  -0.000307  3.975201  0.0  -0.301918  -0.000171  3.994674  0.0  -0.117137  -0.288889  -0.000594  3.961943  -0.001
C  C61  1  0.48597260  0.99188450  0.82534807  1  -0.266067  -0.002086  3.722227  -0.002  -0.294248  -0.000307  3.974953  0.0  -0.301985  -0.00017  3.994427  0.0  -0.117197  -0.288955  -0.000594  3.961691  -0.001
C  C62  1  0.98939311  0.20051715  0.29925729  1  -0.276882  -0.002151  3.729568  -0.002  -0.30435  -0.000304  3.981792  0.0  -0.312347  -0.000184  4.000791  0.0  -0.120712  -0.298908  -0.000547  3.968873  0.0
C  C63  1  0.48939998  0.79948699  0.70074597  1  -0.276808  -0.002154  3.729711  -0.002  -0.304265  -0.000304  3.981907  0.0  -0.31226  -0.000184  4.000907  0.0  -0.120686  -0.298827  -0.000547  3.968986  0.0
C  C64  1  0.08651454  0.29962694  0.33985013  1  0.285365  0.001  3.830567  0.001  0.272742  5.5e-05  4.100539  0.0  0.286413  0.000109  4.114403  0.0  0.084073  0.263443  2.1e-05  4.090869  0.0
C  C65  1  0.58652376  0.70037579  0.66014854  1  0.285491  0.001002  3.830386  0.001  0.272822  5.6e-05  4.100449  0.0  0.286496  0.000109  4.11432  0.0  0.084167  0.263519  2.1e-05  4.09078  0.0
C  C66  1  0.27706667  0.31350485  0.30018674  1  -0.184823  -0.001695  3.759216  -0.002  -0.21145  -0.000245  4.022357  0.0  -0.21614  -0.000141  4.038655  0.0  -0.105715  -0.208271  -0.000472  4.011264  0.0
C  C67  1  0.77707459  0.68649857  0.69981085  1  -0.185053  -0.001697  3.759238  -0.002  -0.21165  -0.000245  4.02238  0.0  -0.216346  -0.00014  4.038679  0.0  -0.105795  -0.208473  -0.000472  4.011288  0.0
C  C68  1  0.36871680  0.22756996  0.22275932  1  -0.096187  0.001556  3.791009  0.001  -0.116347  0.000167  4.048144  0.0  -0.114165  0.000188  4.065443  0.0  -0.093031  -0.117605  0.000206  4.036326  0.0
C  C69  1  0.86872473  0.77243180  0.77724075  1  -0.096132  0.001558  3.790802  0.001  -0.11629  0.000168  4.047939  0.0  -0.114095  0.000187  4.065224  0.0  -0.093007  -0.117546  0.000205  4.036113  0.0
C  C70  1  0.44964951  0.96631513  0.33944601  1  0.116732  0.009212  3.697648  0.006  0.091288  0.002613  3.945559  0.002  0.100283  0.003944  3.965111  0.003  0.03947  0.085575  0.001668  3.932875  0.001
C  C71  1  0.94965791  0.03368333  0.66055071  1  0.116673  0.009208  3.697562  0.006  0.091265  0.002616  3.945439  0.002  0.100252  0.003941  3.964989  0.003  0.039463  0.085553  0.001668  3.932746  0.001
C  C72  1  0.45298311  0.07683282  0.40037275  1  -0.135559  -0.007648  3.746749  -0.008  -0.142023  -0.003118  3.986934  -0.004  -0.150545  -0.002852  4.009394  -0.003  -0.089491  -0.136601  -0.00332  3.972116  -0.004
C  C73  1  0.95298544  0.92316807  0.59962409  1  -0.135585  -0.007647  3.746493  -0.008  -0.142103  -0.003119  3.986714  -0.004  -0.150617  -0.00285  4.009169  -0.003  -0.089509  -0.136681  -0.003319  3.971883  -0.004
C  C74  1  0.47264820  0.11095074  0.51151499  1  0.012888  0.011466  3.683969  0.007  -0.007  0.004787  3.929714  0.003  -0.001353  0.005133  3.945308  0.003  -0.061771  -0.010915  0.00456  3.919851  0.003
C  C75  1  0.97264873  0.88904932  0.48847932  1  0.012947  0.011467  3.683791  0.007  -0.00696  0.004788  3.929538  0.003  -0.001313  0.005131  3.945133  0.003  -0.06179  -0.010876  0.004561  3.919679  0.003
C  C76  1  0.49001855  0.03243200  0.55756167  1  -0.106692  -0.008316  3.714683  -0.009  -0.118878  -0.003469  3.960494  -0.004  -0.126712  -0.003134  3.982566  -0.004  -0.082861  -0.113845  -0.003728  3.945939  -0.005
C  C77  1  0.99002015  0.96756806  0.44243640  1  -0.106578  -0.008316  3.71469  -0.009  -0.118724  -0.00347  3.960453  -0.004  -0.12656  -0.003132  3.982528  -0.004  -0.082843  -0.113706  -0.003728  3.945912  -0.005
C  C78  1  0.48943809  0.92354775  0.49154762  1  0.109798  0.008545  3.709587  0.005  0.085109  0.002126  3.958682  0.001  0.093528  0.003551  3.978853  0.002  0.039083  0.079841  0.001092  3.945626  0.0
C  C79  1  0.98944132  0.07645231  0.50844821  1  0.109802  0.008549  3.709489  0.005  0.085115  0.002127  3.958547  0.001  0.093536  0.003549  3.97871  0.002  0.039132  0.079851  0.001092  3.945485  0.0
C  C80  1  0.81772451  0.39182923  0.45739791  1  -0.064997  -0.01085  3.620428  -0.012  -0.12359  -0.006532  3.885799  -0.007  -0.120578  -0.004394  3.886352  -0.005  -0.065843  -0.125543  -0.008312  3.885006  -0.009
C  C81  1  0.31772843  0.60817174  0.54260183  1  -0.065066  -0.010848  3.620252  -0.012  -0.12355  -0.006532  3.885607  -0.007  -0.120528  -0.004393  3.886154  -0.005  -0.065829  -0.1255  -0.008312  3.884807  -0.009
C  C82  1  0.80365540  0.35350189  0.55249872  1  0.648221  0.006854  3.880444  0.007  0.604056  0.001296  4.192773  0.002  0.639766  0.001845  4.186867  0.002  0.203675  0.57992  0.00064  4.195884  0.002
C  C83  1  0.30365439  0.64649585  0.44749985  1  0.64812  0.006854  3.88052  0.007  0.60401  0.001297  4.192739  0.002  0.639722  0.001844  4.186836  0.002  0.203684  0.579879  0.00064  4.195836  0.002
C  C84  1  0.53525789  0.52463105  0.11616733  1  0.117202  0.011234  3.688751  0.007  0.0931  0.003207  3.931458  0.002  0.101678  0.004828  3.952391  0.003  0.043744  0.08768  0.001971  3.917772  0.001
C  C85  1  0.03526351  0.47536765  0.88383060  1  0.117216  0.011183  3.688651  0.007  0.093087  0.003206  3.931368  0.002  0.101663  0.004827  3.952301  0.003  0.043711  0.08767  0.001971  3.917672  0.001
C  C86  1  0.62892754  0.42945047  0.05212373  1  -0.119811  -0.009066  3.726766  -0.01  -0.129889  -0.003473  3.972549  -0.004  -0.137715  -0.003158  3.993271  -0.004  -0.083626  -0.124948  -0.003698  3.958941  -0.004
C  C87  1  0.12893309  0.57054819  0.94787651  1  -0.119787  -0.009031  3.726593  -0.01  -0.129859  -0.003473  3.972349  -0.004  -0.137683  -0.003158  3.99307  -0.004  -0.083642  -0.124918  -0.003699  3.958741  -0.004
C  C88  1  0.79256302  0.39247241  0.09344273  1  -0.006855  0.012955  3.718278  0.008  -0.025115  0.004654  3.963968  0.003  -0.020578  0.005297  3.981323  0.003  -0.065459  -0.028115  0.004091  3.952518  0.002
C  C89  1  0.29257425  0.60752291  0.90655722  1  -0.006915  0.012901  3.71817  0.008  -0.025146  0.004653  3.963876  0.003  -0.020611  0.005295  3.981232  0.003  -0.065423  -0.028154  0.00409  3.952451  0.002
C  C90  1  0.85427088  0.45110016  0.19802186  1  -0.122947  -0.009971  3.729942  -0.011  -0.131029  -0.004143  3.971129  -0.005  -0.139254  -0.003681  3.993095  -0.005  -0.085078  -0.12587  -0.004465  3.956707  -0.005
C  C91  1  0.35428192  0.54889676  0.80198020  1  -0.123005  -0.009936  3.73012  -0.011  -0.131095  -0.004142  3.971286  -0.005  -0.139322  -0.003681  3.993255  -0.005  -0.085096  -0.12594  -0.004465  3.956883  -0.005
C  C92  1  0.75203373  0.54546357  0.25774220  1  0.130082  0.009974  3.668547  0.006  0.100861  0.001889  3.921918  0.001  0.110785  0.003619  3.939349  0.002  0.050184  0.094421  0.000565  3.910921  0.0
C  C93  1  0.25204484  0.45453421  0.74225784  1  0.130125  0.009928  3.668879  0.006  0.100906  0.001888  3.922298  0.001  0.110832  0.003619  3.939727  0.002  0.050128  0.09446  0.000565  3.911305  0.0
N  N94  1  0.46911820  0.89039096  0.38410061  1  -0.311705  -0.06616  3.340736  -0.085  -0.264347  -0.045103  3.637937  -0.062  -0.295025  -0.036532  3.658403  -0.054  -0.349792  -0.246504  -0.049855  3.626601  -0.065
N  N95  1  0.96912470  0.10960993  0.61589849  1  -0.31169  -0.066161  3.340491  -0.085  -0.264376  -0.045106  3.637705  -0.062  -0.29504  -0.036532  3.65816  -0.054  -0.349813  -0.246524  -0.049858  3.626336  -0.065
N  N96  1  0.59714880  0.58182388  0.21670245  1  -0.288868  -0.078427  3.338312  -0.1  -0.238021  -0.052229  3.621987  -0.071  -0.269923  -0.041824  3.645857  -0.062  -0.347768  -0.219227  -0.057897  3.607865  -0.075
N  N97  1  0.09715721  0.41817560  0.78329731  1  -0.289017  -0.078401  3.338677  -0.1  -0.238031  -0.052228  3.622198  -0.071  -0.269923  -0.041824  3.646063  -0.062  -0.347717  -0.219231  -0.057896  3.608059  -0.075
O  O98  1  0.54948170  0.76489523  0.16017621  1  -0.584164  -0.091428  2.042444  -0.124  -0.557787  -0.060236  2.319074  -0.089  -0.602119  -0.044808  2.315804  -0.072  -0.31963  -0.528581  -0.069988  2.321094  -0.098
O  O99  1  0.04950282  0.23510103  0.83981936  1  -0.58418  -0.091429  2.042739  -0.124  -0.557778  -0.060236  2.319335  -0.089  -0.60209  -0.044808  2.316034  -0.072  -0.319597  -0.528619  -0.069992  2.321445  -0.098
O  O100  1  0.86074847  0.79329696  0.22754186  1  -0.615489  -0.000819  2.027428  -0.004  -0.57589  1.3e-05  2.268442  -0.002  -0.602055  0.001264  2.25877  -0.001  -0.307781  -0.557823  -0.001263  2.274726  -0.004
O  O101  1  0.36078282  0.20669834  0.77246187  1  -0.615483  -0.000819  2.027575  -0.004  -0.575881  1.2e-05  2.268655  -0.002  -0.602042  0.001265  2.258978  -0.001  -0.307811  -0.557817  -0.001263  2.274931  -0.004
O  O102  1  0.00182477  0.82161620  0.04500047  1  -0.262664  -0.004317  2.370379  -0.006  -0.194673  -0.001944  2.607684  -0.003  -0.213862  -0.001041  2.611912  -0.002  -0.176334  -0.180649  -0.003006  2.60405  -0.004
O  O103  1  0.50183230  0.17838339  0.95501194  1  -0.262537  -0.004318  2.370291  -0.006  -0.194705  -0.001943  2.60763  -0.003  -0.213893  -0.001041  2.611862  -0.002  -0.176391  -0.180686  -0.003006  2.604003  -0.004
O  O104  1  0.01287000  0.39165193  0.41566158  1  -0.25717  -0.000472  2.378753  0.0  -0.187737  -4.2e-05  2.615126  0.0  -0.205107  8.4e-05  2.616756  0.0  -0.175291  -0.175234  -0.000288  2.613281  0.0
O  O105  1  0.51287775  0.60835165  0.58433732  1  -0.257086  -0.000472  2.378484  0.0  -0.187717  -4.4e-05  2.614923  0.0  -0.205098  8.4e-05  2.616563  0.0  -0.175328  -0.175216  -0.000288  2.613081  0.0
O  O106  1  0.95988860  0.31052951  0.57509917  1  -0.597079  -0.08269  2.089687  -0.114  -0.571643  -0.053868  2.373393  -0.082  -0.613098  -0.03995  2.36496  -0.066  -0.320189  -0.544023  -0.06323  2.378909  -0.09
O  O107  1  0.45989183  0.68946895  0.42489980  1  -0.597071  -0.082696  2.089669  -0.114  -0.571617  -0.053871  2.373324  -0.082  -0.613088  -0.039952  2.364896  -0.066  -0.320167  -0.543997  -0.063236  2.378844  -0.09
O  O108  1  0.63840395  0.36937761  0.59966455  1  -0.608968  -0.000568  1.965465  -0.002  -0.565095  1.5e-05  2.191464  -0.001  -0.591741  0.0009  2.182952  0.0  -0.314763  -0.546381  -0.000853  2.19663  -0.002
O  O109  1  0.13840579  0.63061942  0.40033437  1  -0.608885  -0.000567  1.965482  -0.002  -0.565071  1.6e-05  2.191489  -0.001  -0.591713  0.0009  2.182968  0.0  -0.31477  -0.546355  -0.000853  2.19665  -0.002
O  O110  1  0.18417614  0.67535102  0.22283110  1  -0.852958  0.00243  1.88259  0.001  -0.811117  0.002045  2.066912  0.001  -0.83285  0.002372  2.030767  0.001  -0.608684  -0.795825  0.001598  2.091795  0.0
O  O111  1  0.68418701  0.32465086  0.77717183  1  -0.852988  0.00243  1.882569  0.001  -0.811059  0.002044  2.067037  0.001  -0.83278  0.002373  2.030899  0.001  -0.608684  -0.795746  0.001597  2.091873  0.0
