# generated using pymatgen
data_ZnH22C33N7ClO4
_symmetry_space_group_name_H-M   'P 1'
_cell_length_a   11.58036912
_cell_length_b   14.29725288
_cell_length_c   20.13265828
_cell_angle_alpha   90.00005931
_cell_angle_beta   89.99981771
_cell_angle_gamma   95.36797905
_symmetry_Int_Tables_number   1
_chemical_formula_structural   ZnH22C33N7ClO4
_chemical_formula_sum   'Zn4 H88 C132 N28 Cl4 O16'
_cell_volume   3318.69464138
_cell_formula_units_Z   4
loop_
 _symmetry_equiv_pos_site_id
 _symmetry_equiv_pos_as_xyz
  1  'x, y, z'
loop_
 _atom_site_type_symbol
 _atom_site_label
 _atom_site_symmetry_multiplicity
 _atom_site_fract_x
 _atom_site_fract_y
 _atom_site_fract_z
 _atom_site_occupancy
 _atom_site_pbe_bader_charge
 _atom_site_pbe_bader_spin_density
 _atom_site_pbe_cm5_charge
 _atom_site_pbe_ddec_charge
 _atom_site_pbe_ddec_spin_density
 _atom_site_pbe_ddec_sum_bond_order
 _atom_site_pbe_magmom
Zn  Zn0  1  0.05918351  0.21319319  0.99358963  1  1.273954  0  0.687064  0.731285  0  2.429375  0
Zn  Zn1  1  0.44081183  0.78680653  0.49359243  1  1.2742  0  0.687107  0.731451  0  2.429244  0
Zn  Zn2  1  0.94081500  0.78680480  0.00640941  1  1.274034  0  0.687111  0.731448  0  2.429166  0
Zn  Zn3  1  0.55918472  0.21319708  0.50641009  1  1.27406  0  0.687094  0.731389  0  2.429403  0
H  H4  1  0.12026245  0.16831359  0.74297039  1  0.079648  0  0.109299  0.117082  0  1.009095  0
H  H5  1  0.37973748  0.83168377  0.24297284  1  0.079216  0  0.109273  0.116987  0  1.009191  0
H  H6  1  0.87973104  0.83167807  0.25702666  1  0.079087  0  0.109243  0.116979  0  1.00921  0
H  H7  1  0.62026324  0.16832617  0.75702720  1  0.079125  0  0.10926  0.117022  0  1.009141  0
H  H8  1  0.40271327  0.89920947  0.14269051  1  0.097454  0  0.100349  0.109582  0  1.0124  0
H  H9  1  0.09727504  0.10078706  0.64268855  1  0.097471  0  0.10031  0.109549  0  1.012418  0
H  H10  1  0.59727786  0.10078430  0.85730953  1  0.097462  0  0.100339  0.109567  0  1.01247  0
H  H11  1  0.90270746  0.89921442  0.35731099  1  0.097494  0  0.10033  0.109504  0  1.012393  0
H  H12  1  0.48484417  0.19351228  0.01476171  1  0.094343  0  0.100781  0.103849  0  1.062664  0
H  H13  1  0.01514490  0.80648481  0.51475545  1  0.093666  0  0.10081  0.103911  0  1.06256  0
H  H14  1  0.51515160  0.80649203  0.98525024  1  0.093722  0  0.100797  0.1039  0  1.062649  0
H  H15  1  0.98485471  0.19351530  0.48524111  1  0.094131  0  0.100781  0.103832  0  1.062698  0
H  H16  1  0.02315094  0.30134421  0.13208200  1  0.091581  0  0.119407  0.086618  0  0.980253  0
H  H17  1  0.47684292  0.69865513  0.63208426  1  0.091669  0  0.11939  0.086561  0  0.980327  0
H  H18  1  0.97684593  0.69865449  0.86791804  1  0.09163  0  0.119415  0.086634  0  0.980264  0
H  H19  1  0.52315308  0.30134357  0.36791826  1  0.091577  0  0.119383  0.086568  0  0.980278  0
H  H20  1  0.98826338  0.00509896  0.94793453  1  0.142859  0  0.121127  0.097924  0  1.018426  0
H  H21  1  0.51174658  0.99490060  0.44793677  1  0.142754  0  0.121099  0.097858  0  1.018466  0
H  H22  1  0.01176481  0.99489418  0.05206948  1  0.142995  0  0.121131  0.097955  0  1.018459  0
H  H23  1  0.48824887  0.00510090  0.55206972  1  0.143089  0  0.121146  0.097923  0  1.018374  0
H  H24  1  0.67009304  0.26346469  0.03160783  1  0.047107  0  0.101866  0.090186  0  0.998948  0
H  H25  1  0.82989021  0.73653016  0.53160989  1  0.046627  0  0.101907  0.090273  0  0.998915  0
H  H26  1  0.32989935  0.73653259  0.96839568  1  0.046646  0  0.101886  0.090226  0  0.998974  0
H  H27  1  0.17010132  0.26346712  0.46838916  1  0.046868  0  0.101902  0.090264  0  0.998869  0
H  H28  1  0.65769990  0.18222975  0.96532306  1  0.054409  0  0.104172  0.09326  0  1.000099  0
H  H29  1  0.84228028  0.81775924  0.46532258  1  0.054615  0  0.104139  0.093271  0  1.000221  0
H  H30  1  0.34228157  0.81776259  0.03468194  1  0.054473  0  0.104189  0.093245  0  1.000149  0
H  H31  1  0.15770755  0.18223593  0.53467547  1  0.054565  0  0.104139  0.093247  0  1.000108  0
H  H32  1  0.18148531  0.57092217  0.99851796  1  0.138051  0  0.109086  0.120684  0  1.021832  0
H  H33  1  0.31851181  0.42907826  0.49851873  1  0.138088  0  0.109069  0.120633  0  1.021846  0
H  H34  1  0.81851744  0.42907513  0.00148158  1  0.137955  0  0.109092  0.120636  0  1.021819  0
H  H35  1  0.68149252  0.57092537  0.50147634  1  0.138118  0  0.109114  0.120646  0  1.021787  0
H  H36  1  0.23855484  0.98519209  0.09960299  1  0.094898  0  0.098669  0.110016  0  1.016195  0
H  H37  1  0.26143511  0.01480159  0.59959967  1  0.095199  0  0.098666  0.110076  0  1.016191  0
H  H38  1  0.76143928  0.01480520  0.90039954  1  0.095086  0  0.098621  0.109986  0  1.016255  0
H  H39  1  0.73855242  0.98520622  0.40039937  1  0.095005  0  0.098645  0.109962  0  1.016298  0
H  H40  1  0.04398125  0.46210955  0.18462155  1  0.10516  0  0.107749  0.114596  0  0.996496  0
H  H41  1  0.45601476  0.53788844  0.68462423  1  0.105099  0  0.10774  0.114551  0  0.996588  0
H  H42  1  0.95601319  0.53789055  0.81537600  1  0.105106  0  0.107744  0.114581  0  0.996576  0
H  H43  1  0.54397857  0.46210954  0.31537581  1  0.105048  0  0.107764  0.114605  0  0.996639  0
H  H44  1  0.82656269  0.24646409  0.67081885  1  0.062012  0  0.099036  0.066293  0  1.02595  0
H  H45  1  0.67344525  0.75353448  0.17082261  1  0.061864  0  0.09904  0.066319  0  1.025954  0
H  H46  1  0.17344893  0.75352761  0.32917473  1  0.061922  0  0.099035  0.066263  0  1.025839  0
H  H47  1  0.32655618  0.24646634  0.82917544  1  0.062018  0  0.099032  0.066258  0  1.025941  0
H  H48  1  0.53201298  0.57921321  0.98646707  1  0.129451  0  0.111332  0.076425  0  1.049836  0
H  H49  1  0.96800509  0.42077587  0.48646757  1  0.129307  0  0.11145  0.076612  0  1.049708  0
H  H50  1  0.46799567  0.42078270  0.01353247  1  0.129186  0  0.111365  0.076488  0  1.049746  0
H  H51  1  0.03201729  0.57921164  0.51352849  1  0.129304  0  0.111346  0.076479  0  1.049757  0
H  H52  1  0.00724441  0.91047581  0.84625718  1  0.083587  0  0.1126  0.12249  0  0.986911  0
H  H53  1  0.49276516  0.08952027  0.34625987  1  0.083624  0  0.112561  0.12247  0  0.986936  0
H  H54  1  0.99277915  0.08951451  0.15374783  1  0.082362  0  0.112624  0.122511  0  0.986926  0
H  H55  1  0.50724035  0.91048617  0.65374911  1  0.08381  0  0.112618  0.122507  0  0.986984  0
H  H56  1  0.92214505  0.30505760  0.56729346  1  0.160349  0  0.106128  0.126134  0  1.039718  0
H  H57  1  0.57786188  0.69494998  0.06729487  1  0.160399  0  0.106084  0.126118  0  1.039691  0
H  H58  1  0.07786312  0.69494182  0.43270161  1  0.16038  0  0.106112  0.126115  0  1.039707  0
H  H59  1  0.42213954  0.30505083  0.93270319  1  0.160432  0  0.106106  0.126113  0  1.039747  0
H  H60  1  0.07881446  0.99411813  0.74065758  1  0.110046  0  0.1057  0.104281  0  1.013185  0
H  H61  1  0.42119255  0.00588065  0.24066133  1  0.110069  0  0.105697  0.104291  0  1.013094  0
H  H62  1  0.92118837  0.00587215  0.25934197  1  0.110072  0  0.105679  0.104263  0  1.013011  0
H  H63  1  0.57881445  0.99413141  0.75934467  1  0.110103  0  0.105653  0.104226  0  1.013002  0
H  H64  1  0.21194515  0.41897918  0.68851361  1  0.080174  0  0.10345  0.109307  0  1.031635  0
H  H65  1  0.28805092  0.58103497  0.18851207  1  0.080611  0  0.103456  0.10932  0  1.031605  0
H  H66  1  0.78805290  0.58103005  0.31148593  1  0.080241  0  0.103463  0.109296  0  1.031618  0
H  H67  1  0.71194454  0.41897426  0.81148748  1  0.080281  0  0.103468  0.109365  0  1.03163  0
H  H68  1  0.12377206  0.59991297  0.11287988  1  0.156617  0  0.114573  0.130171  0  0.997243  0
H  H69  1  0.37622764  0.40008355  0.61288062  1  0.15652  0  0.114603  0.130252  0  0.997235  0
H  H70  1  0.87622708  0.40008292  0.88711817  1  0.156499  0  0.114599  0.130258  0  0.997225  0
H  H71  1  0.62377158  0.59991305  0.38711594  1  0.156473  0  0.11464  0.130332  0  0.997194  0
H  H72  1  0.12107904  0.39709098  0.57540244  1  0.085138  0  0.105112  0.103436  0  1.012184  0
H  H73  1  0.37892220  0.60292517  0.07540273  1  0.085358  0  0.105059  0.103389  0  1.012155  0
H  H74  1  0.87892513  0.60291897  0.42459561  1  0.085084  0  0.105071  0.103392  0  1.01214  0
H  H75  1  0.62107624  0.39707985  0.92459780  1  0.085048  0  0.105057  0.103359  0  1.012124  0
H  H76  1  0.27121926  0.59331643  0.79518756  1  0.092967  0  0.106384  0.112259  0  1.012009  0
H  H77  1  0.22878117  0.40668801  0.29518053  1  0.092818  0  0.106347  0.112161  0  1.012097  0
H  H78  1  0.72877156  0.40668998  0.20481745  1  0.092939  0  0.106433  0.112348  0  1.012014  0
H  H79  1  0.77123611  0.59331564  0.70481255  1  0.093129  0  0.106404  0.11231  0  1.01194  0
H  H80  1  0.58469125  0.69786282  0.89931663  1  0.118647  0  0.110037  0.121073  0  1.006356  0
H  H81  1  0.91532046  0.30213459  0.39931565  1  0.118744  0  0.109995  0.121032  0  1.006472  0
H  H82  1  0.41530624  0.30214150  0.10068440  1  0.118678  0  0.110046  0.121107  0  1.006358  0
H  H83  1  0.08470098  0.69785994  0.60067793  1  0.118535  0  0.110038  0.121074  0  1.006431  0
H  H84  1  0.44940390  0.70837875  0.80112804  1  0.070407  0  0.110413  0.107229  0  0.970898  0
H  H85  1  0.05059611  0.29162218  0.30111926  1  0.070316  0  0.110439  0.107238  0  0.970779  0
H  H86  1  0.55058276  0.29162905  0.19887995  1  0.070407  0  0.110426  0.107291  0  0.970741  0
H  H87  1  0.94942157  0.70837726  0.69887183  1  0.070188  0  0.110394  0.107196  0  0.970866  0
H  H88  1  0.74087399  0.08297314  0.07137990  1  0.47288  0  0.294245  0.245581  0  1.007846  0
H  H89  1  0.75911525  0.91702317  0.57138023  1  0.47281  0  0.294258  0.245715  0  1.007801  0
H  H90  1  0.25911730  0.91702203  0.92862213  1  0.472871  0  0.294212  0.245506  0  1.007925  0
H  H91  1  0.24087958  0.08297271  0.42862180  1  0.472829  0  0.294242  0.245606  0  1.007817  0
C  C92  1  0.13765962  0.42015924  0.00439488  1  0.494446  0  0.128656  0.185833  0  3.95732  0
C  C93  1  0.36234020  0.57984067  0.50439477  1  0.494347  0  0.128655  0.185829  0  3.957378  0
C  C94  1  0.86233795  0.57983805  0.99560317  1  0.4943  0  0.128557  0.185715  0  3.957491  0
C  C95  1  0.63766327  0.42016295  0.49560328  1  0.494555  0  0.128558  0.185744  0  3.9571  0
C  C96  1  0.07403956  0.17870868  0.84644361  1  0.555075  0  0.124114  0.180004  0  3.984404  0
C  C97  1  0.42596601  0.82129021  0.34644597  1  0.555496  0  0.124107  0.179901  0  3.984216  0
C  C98  1  0.92596626  0.82128512  0.15355543  1  0.555665  0  0.124026  0.179893  0  3.984424  0
C  C99  1  0.57403251  0.17871551  0.65355407  1  0.555675  0  0.123991  0.179967  0  3.98444  0
C  C100  1  0.15919583  0.39622830  0.93422834  1  0.553995  0  0.142369  0.119071  0  3.905153  0
C  C101  1  0.34080652  0.60376927  0.43422821  1  0.553854  0  0.142422  0.119149  0  3.905299  0
C  C102  1  0.84080583  0.60376689  0.06577070  1  0.554089  0  0.142391  0.119107  0  3.905389  0
C  C103  1  0.65919789  0.39623506  0.56576984  1  0.554547  0  0.142403  0.119193  0  3.905172  0
C  C104  1  0.11731991  0.35148105  0.80438560  1  0.562496  0  0.139222  0.119879  0  3.977826  0
C  C105  1  0.38268040  0.64852270  0.30438543  1  0.562552  0  0.139285  0.119987  0  3.977749  0
C  C106  1  0.88268198  0.64851626  0.19561344  1  0.562759  0  0.139285  0.1199  0  3.977592  0
C  C107  1  0.61731954  0.35148794  0.69561213  1  0.562794  0  0.139281  0.120076  0  3.977715  0
C  C108  1  0.08928710  0.13027624  0.78725815  1  -0.03817  0  -0.078144  -0.151374  0  3.945927  0
C  C109  1  0.41072052  0.86972259  0.28725958  1  -0.037928  0  -0.078123  -0.151258  0  3.945954  0
C  C110  1  0.91071918  0.86971405  0.21274288  1  -0.038139  0  -0.078072  -0.151251  0  3.945653  0
C  C111  1  0.58927958  0.13028945  0.71274245  1  -0.037979  0  -0.078104  -0.151347  0  3.945585  0
C  C112  1  0.35419617  0.09612088  0.05583139  1  -0.052426  0  -0.030401  -0.027483  0  4.033165  0
C  C113  1  0.14579684  0.90387486  0.55582446  1  -0.052236  0  -0.030396  -0.027569  0  4.033144  0
C  C114  1  0.64580541  0.90388133  0.94417710  1  -0.051922  0  -0.030365  -0.027658  0  4.033128  0
C  C115  1  0.85419673  0.09613296  0.44417210  1  -0.052566  0  -0.030443  -0.027873  0  4.033056  0
C  C116  1  0.30868576  0.52835683  0.88864511  1  0.545835  0  0.114272  0.168042  0  4.027145  0
C  C117  1  0.19132546  0.47164071  0.38864167  1  0.545066  0  0.114237  0.168122  0  4.026871  0
C  C118  1  0.69131793  0.47164118  0.11135593  1  0.545459  0  0.114221  0.167991  0  4.027252  0
C  C119  1  0.80869040  0.52835803  0.61135290  1  0.546346  0  0.114276  0.168095  0  4.027151  0
C  C120  1  0.41966537  0.96521932  0.11580236  1  0.010444  0  -0.10695  -0.158832  0  4.077099  0
C  C121  1  0.08032529  0.03478140  0.61579592  1  0.01067  0  -0.10699  -0.159015  0  4.077488  0
C  C122  1  0.58032907  0.03478078  0.88420165  1  0.010534  0  -0.107048  -0.159044  0  4.077557  0
C  C123  1  0.91966279  0.96522360  0.38420015  1  0.01055  0  -0.107031  -0.158916  0  4.077127  0
C  C124  1  0.56274332  0.08512898  0.06966692  1  0.45952  0  0.091668  0.179118  0  4.113841  0
C  C125  1  0.93725213  0.91486875  0.56966295  1  0.459577  0  0.091644  0.178994  0  4.114244  0
C  C126  1  0.43725292  0.91487183  0.93033808  1  0.459227  0  0.091602  0.178882  0  4.114061  0
C  C127  1  0.06274545  0.08512854  0.43033361  1  0.459499  0  0.091613  0.178843  0  4.114243  0
C  C128  1  0.46924690  0.12985174  0.04412991  1  -0.005695  0  -0.104353  -0.211025  0  3.974485  0
C  C129  1  0.03074391  0.87014680  0.54412367  1  -0.004992  0  -0.104324  -0.211047  0  3.974601  0
C  C130  1  0.53074950  0.87015047  0.95587907  1  -0.004934  0  -0.10432  -0.210966  0  3.974439  0
C  C131  1  0.96925430  0.12985611  0.45587339  1  -0.005567  0  -0.104251  -0.210749  0  3.97441  0
C  C132  1  0.21280671  0.45277762  0.88225505  1  0.539238  0  0.135938  0.108866  0  3.951222  0
C  C133  1  0.28720110  0.54721991  0.38225398  1  0.539984  0  0.136004  0.108873  0  3.951151  0
C  C134  1  0.78719651  0.54721617  0.11774350  1  0.539277  0  0.135968  0.108912  0  3.951243  0
C  C135  1  0.71280677  0.45278443  0.61774258  1  0.538726  0  0.135905  0.108816  0  3.951131  0
C  C136  1  0.82960469  0.21669057  0.99954989  1  1.574079  0  0.194372  0.588422  0  4.203174  0
C  C137  1  0.67037640  0.78330829  0.49955566  1  1.573745  0  0.19469  0.58858  0  4.202773  0
C  C138  1  0.17038338  0.78330671  0.00044667  1  1.573677  0  0.194551  0.588453  0  4.20313  0
C  C139  1  0.32961010  0.21669038  0.50044785  1  1.573917  0  0.194452  0.588413  0  4.20312  0
C  C140  1  0.26277362  0.15397202  0.02966952  1  1.546313  0  0.189382  0.552782  0  4.233959  0
C  C141  1  0.23721875  0.84602439  0.52966388  1  1.546603  0  0.189452  0.552915  0  4.233878  0
C  C142  1  0.73722340  0.84602808  0.97033995  1  1.546618  0  0.189454  0.553015  0  4.233913  0
C  C143  1  0.76278024  0.15398554  0.47033368  1  1.546784  0  0.189545  0.553144  0  4.23354  0
C  C144  1  0.06058504  0.36302181  0.10491568  1  0.567877  0  0.051667  0.0948  0  3.966551  0
C  C145  1  0.43941140  0.63697610  0.60491796  1  0.56776  0  0.051663  0.094856  0  3.966665  0
C  C146  1  0.93941159  0.63697478  0.89508336  1  0.567897  0  0.051613  0.09472  0  3.966528  0
C  C147  1  0.56058570  0.36302471  0.39508158  1  0.568026  0  0.051713  0.094899  0  3.966378  0
C  C148  1  0.01736386  0.03904708  0.90172444  1  0.501427  0  0.060322  0.114901  0  3.918711  0
C  C149  1  0.48263882  0.96095186  0.40172828  1  0.501169  0  0.060393  0.11505  0  3.918528  0
C  C150  1  0.98264878  0.96094603  0.09827709  1  0.501129  0  0.060446  0.115016  0  3.918738  0
C  C151  1  0.51736119  0.03905176  0.59827623  1  0.500974  0  0.06034  0.114956  0  3.918746  0
C  C152  1  0.70097307  0.19724788  0.01357290  1  0.358957  0  -0.064011  -0.144654  0  3.974428  0
C  C153  1  0.79901452  0.80274626  0.51357159  1  0.359739  0  -0.064026  -0.144828  0  3.974675  0
C  C154  1  0.29901885  0.80274518  0.98643210  1  0.359667  0  -0.063981  -0.144623  0  3.974451  0
C  C155  1  0.20097873  0.19725103  0.48642646  1  0.359069  0  -0.06401  -0.144675  0  3.974457  0
C  C156  1  0.14992651  0.51169096  0.02944425  1  -0.061042  0  -0.072997  -0.140246  0  3.9135  0
C  C157  1  0.35007404  0.48830899  0.52944510  1  -0.061006  0  -0.072977  -0.140178  0  3.913341  0
C  C158  1  0.85007531  0.48830564  0.97055430  1  -0.060732  0  -0.072949  -0.140035  0  3.913318  0
C  C159  1  0.64992856  0.51169464  0.47054948  1  -0.060997  0  -0.073063  -0.140175  0  3.913166  0
C  C160  1  0.53437756  0.00178448  0.10635606  1  -0.019644  0  -0.001521  0.04142  0  4.025106  0
C  C161  1  0.96561259  0.99821398  0.60635061  1  -0.019931  0  -0.001455  0.041674  0  4.025379  0
C  C162  1  0.46561931  0.99821422  0.89364795  1  -0.019585  0  -0.001437  0.041656  0  4.025341  0
C  C163  1  0.03437651  0.00178470  0.39364694  1  -0.019641  0  -0.00156  0.041523  0  4.025312  0
C  C164  1  0.10057363  0.28120482  0.85444207  1  0.563041  0  0.141079  0.111665  0  3.93662  0
C  C165  1  0.39942420  0.71879476  0.35444390  1  0.563219  0  0.140958  0.111555  0  3.936691  0
C  C166  1  0.89942810  0.71879108  0.14555598  1  0.563302  0  0.141011  0.111661  0  3.936471  0
C  C167  1  0.60057173  0.28121096  0.64555713  1  0.56335  0  0.141035  0.11144  0  3.936738  0
C  C168  1  0.32835402  0.01247244  0.09133836  1  -0.057132  0  -0.107732  -0.121692  0  4.003913  0
C  C169  1  0.17163197  0.98752403  0.59133344  1  -0.05727  0  -0.107753  -0.121674  0  4.004001  0
C  C170  1  0.67163790  0.98752836  0.90866714  1  -0.057518  0  -0.107719  -0.121543  0  4.003973  0
C  C171  1  0.82835564  0.01248448  0.40866411  1  -0.057185  0  -0.107684  -0.12145  0  4.003776  0
C  C172  1  0.07181315  0.45223507  0.13357362  1  -0.102794  0  -0.085617  -0.135986  0  3.980788  0
C  C173  1  0.42818604  0.54776569  0.63357536  1  -0.102876  0  -0.085612  -0.135913  0  3.980965  0
C  C174  1  0.92818874  0.54776223  0.86642543  1  -0.102864  0  -0.085511  -0.135857  0  3.980981  0
C  C175  1  0.57181295  0.45223653  0.36642269  1  -0.10272  0  -0.085602  -0.135931  0  3.980972  0
C  C176  1  0.91234666  0.28503414  0.67304999  1  0.489603  0  0.035783  0.09968  0  4.002094  0
C  C177  1  0.58766095  0.71496935  0.17305238  1  0.49004  0  0.03565  0.099556  0  4.002203  0
C  C178  1  0.08766512  0.71495897  0.32694459  1  0.489649  0  0.0357  0.09972  0  4.001691  0
C  C179  1  0.41233898  0.28503357  0.82694666  1  0.48997  0  0.035686  0.099622  0  4.002002  0
C  C180  1  0.06634338  0.34252922  0.73724896  1  0.484383  0  0.107511  0.160154  0  4.051362  0
C  C181  1  0.43365776  0.65747867  0.23724671  1  0.485034  0  0.107429  0.160021  0  4.051254  0
C  C182  1  0.93366212  0.65746949  0.26275009  1  0.484631  0  0.107607  0.160483  0  4.050966  0
C  C183  1  0.56633872  0.34253197  0.76274985  1  0.484616  0  0.107546  0.16025  0  4.05113  0
C  C184  1  0.47473948  0.58534301  0.94383540  1  0.45659  0  0.04445  0.089486  0  3.963013  0
C  C185  1  0.02527349  0.41464968  0.44383471  1  0.456894  0  0.044447  0.089452  0  3.962906  0
C  C186  1  0.52526665  0.41465360  0.05616364  1  0.456828  0  0.044461  0.089578  0  3.962849  0
C  C187  1  0.97474245  0.58534203  0.55616185  1  0.457482  0  0.044469  0.089493  0  3.963021  0
C  C188  1  0.02773049  0.98627309  0.84415910  1  -0.013592  0  -0.074685  -0.113124  0  3.945692  0
C  C189  1  0.47227242  0.01372508  0.34416029  1  -0.013217  0  -0.074687  -0.113223  0  3.945671  0
C  C190  1  0.97228443  0.01371721  0.15584441  1  -0.012159  0  -0.074666  -0.113244  0  3.94585  0
C  C191  1  0.52772720  0.98628275  0.65584273  1  -0.013436  0  -0.074635  -0.113178  0  3.945774  0
C  C192  1  0.96644366  0.31904447  0.61459369  1  -0.081729  0  -0.085571  -0.129888  0  3.929774  0
C  C193  1  0.53356232  0.68096457  0.11459566  1  -0.082769  0  -0.085357  -0.129703  0  3.929843  0
C  C194  1  0.03356703  0.68095426  0.38540238  1  -0.082253  0  -0.085406  -0.129691  0  3.929535  0
C  C195  1  0.46643667  0.31903764  0.88540388  1  -0.082451  0  -0.085397  -0.12971  0  3.929872  0
C  C196  1  0.06628107  0.03279921  0.78633724  1  -0.023103  0  -0.068178  -0.032121  0  3.981787  0
C  C197  1  0.43372405  0.96720031  0.28633920  1  -0.023135  0  -0.068164  -0.032093  0  3.981789  0
C  C198  1  0.93372632  0.96719318  0.21366329  1  -0.022914  0  -0.068203  -0.032061  0  3.981318  0
C  C199  1  0.56627762  0.03281033  0.71366382  1  -0.02328  0  -0.068106  -0.031954  0  3.981195  0
C  C200  1  0.12652870  0.38149641  0.68195865  1  0.021636  0  -0.084147  -0.157649  0  3.939219  0
C  C201  1  0.37346812  0.61851633  0.18195599  1  0.020669  0  -0.084119  -0.15764  0  3.939109  0
C  C202  1  0.87347406  0.61850861  0.31804486  1  0.021635  0  -0.084181  -0.15783  0  3.939394  0
C  C203  1  0.62652507  0.38149571  0.81804206  1  0.021427  0  -0.084159  -0.157838  0  3.93929  0
C  C204  1  0.11640092  0.52787445  0.09461849  1  -0.018357  0  -0.065643  -0.022543  0  3.932149  0
C  C205  1  0.38360068  0.47212276  0.59462026  1  -0.018284  0  -0.065663  -0.022665  0  3.932131  0
C  C206  1  0.88360254  0.47212145  0.90538006  1  -0.018354  0  -0.065636  -0.022684  0  3.932278  0
C  C207  1  0.61640145  0.52787665  0.40537581  1  -0.018634  0  -0.065627  -0.022664  0  3.932114  0
C  C208  1  0.07563473  0.36880191  0.61949849  1  -0.02615  0  -0.070643  -0.024012  0  3.962112  0
C  C209  1  0.42436604  0.63121217  0.11949872  1  -0.025696  0  -0.070693  -0.024073  0  3.962113  0
C  C210  1  0.92436984  0.63120382  0.38049857  1  -0.025875  0  -0.070658  -0.024025  0  3.962363  0
C  C211  1  0.57562824  0.36879424  0.88049983  1  -0.025664  0  -0.070652  -0.023918  0  3.962157  0
C  C212  1  0.33084307  0.59379632  0.83700513  1  -0.05092  0  -0.082628  -0.155448  0  3.945191  0
C  C213  1  0.16916177  0.40620326  0.33700268  1  -0.050583  0  -0.082638  -0.155364  0  3.945156  0
C  C214  1  0.66915372  0.40620940  0.16299789  1  -0.050256  0  -0.082754  -0.155608  0  3.945318  0
C  C215  1  0.83085575  0.59379478  0.66299437  1  -0.050921  0  -0.082703  -0.155643  0  3.94535  0
C  C216  1  0.50519060  0.65135479  0.89413704  1  -0.02357  0  -0.079395  -0.1159  0  3.948707  0
C  C217  1  0.99482074  0.34863911  0.39413694  1  -0.023499  0  -0.079427  -0.115907  0  3.949213  0
C  C218  1  0.49480744  0.34864672  0.10586399  1  -0.023618  0  -0.079442  -0.116037  0  3.948816  0
C  C219  1  0.00520203  0.65135192  0.60585863  1  -0.024125  0  -0.07949  -0.116061  0  3.949078  0
C  C220  1  0.43040239  0.65634304  0.84019838  1  -0.043099  0  -0.070882  -0.034977  0  3.988549  0
C  C221  1  0.06960070  0.34365654  0.34019657  1  -0.043743  0  -0.070903  -0.035035  0  3.988824  0
C  C222  1  0.56958843  0.34366337  0.15980463  1  -0.043609  0  -0.070803  -0.034938  0  3.98848  0
C  C223  1  0.93041768  0.65634150  0.65979950  1  -0.042745  0  -0.070764  -0.034738  0  3.988556  0
N  N224  1  0.95994987  0.29547235  0.73343840  1  -1.20102  0  -0.326058  -0.314355  0  3.3097  0
N  N225  1  0.54005466  0.70452978  0.23343988  1  -1.20119  0  -0.325944  -0.314227  0  3.309581  0
N  N226  1  0.04006010  0.70452005  0.26655717  1  -1.201009  0  -0.326141  -0.31458  0  3.309559  0
N  N227  1  0.45994386  0.29547594  0.76655768  1  -1.201221  0  -0.326078  -0.314425  0  3.309589  0
N  N228  1  0.09222496  0.34743995  0.04229649  1  -1.225809  0  -0.30802  -0.243686  0  3.502763  0
N  N229  1  0.40777010  0.65255789  0.54229934  1  -1.22563  0  -0.308032  -0.243751  0  3.502793  0
N  N230  1  0.90776822  0.65255663  0.95770205  1  -1.225806  0  -0.308097  -0.243809  0  3.502807  0
N  N231  1  0.59222606  0.34744221  0.45770070  1  -1.225842  0  -0.308056  -0.243851  0  3.502592  0
N  N232  1  0.04100554  0.13240116  0.90291058  1  -1.250698  0  -0.312392  -0.252503  0  3.490999  0
N  N233  1  0.45899902  0.86759919  0.40291391  1  -1.251082  0  -0.312358  -0.252443  0  3.490772  0
N  N234  1  0.95900530  0.86759124  0.09708995  1  -1.251223  0  -0.312428  -0.252545  0  3.490998  0
N  N235  1  0.54099707  0.13240793  0.59708961  1  -1.251213  0  -0.31238  -0.252484  0  3.490965  0
N  N236  1  0.37856070  0.52533650  0.94201206  1  -1.208481  0  -0.312326  -0.305931  0  3.34483  0
N  N237  1  0.12145219  0.47465548  0.44201223  1  -1.208041  0  -0.312288  -0.306014  0  3.34464  0
N  N238  1  0.62144613  0.47465870  0.05798748  1  -1.208438  0  -0.312286  -0.305953  0  3.344854  0
N  N239  1  0.87856061  0.52533903  0.55798631  1  -1.209289  0  -0.312341  -0.30597  0  3.344788  0
N  N240  1  0.11431269  0.31036623  0.91689284  1  -1.230771  0  -0.291507  -0.226228  0  3.599369  0
N  N241  1  0.38568480  0.68963342  0.41689467  1  -1.231072  0  -0.291498  -0.226246  0  3.599584  0
N  N242  1  0.88568559  0.68962966  0.08310521  1  -1.230754  0  -0.291469  -0.226237  0  3.599479  0
N  N243  1  0.61431379  0.31037301  0.58310586  1  -1.231122  0  -0.291455  -0.226167  0  3.599392  0
N  N244  1  0.18065882  0.43116451  0.81975264  1  -1.189418  0  -0.281809  -0.272586  0  3.35971  0
N  N245  1  0.31934721  0.56883716  0.31975054  1  -1.189451  0  -0.281913  -0.272687  0  3.359641  0
N  N246  1  0.81934550  0.56883140  0.18024739  1  -1.189445  0  -0.2819  -0.27272  0  3.359714  0
N  N247  1  0.68065838  0.43116998  0.68024751  1  -1.189488  0  -0.281848  -0.272698  0  3.359721  0
N  N248  1  0.67457685  0.12214949  0.06032082  1  -1.245652  0  -0.449409  -0.322149  0  3.646769  0
N  N249  1  0.82541614  0.87784893  0.56031753  1  -1.246053  0  -0.449402  -0.322199  0  3.64676  0
N  N250  1  0.32541907  0.87784850  0.93968766  1  -1.245958  0  -0.449402  -0.321973  0  3.646694  0
N  N251  1  0.17457884  0.12214836  0.43968102  1  -1.245621  0  -0.449361  -0.322055  0  3.646789  0
Cl  Cl252  1  0.64718789  0.94582760  0.14002697  1  -0.238757  0  0.007825  -0.067492  0  1.626396  0
Cl  Cl253  1  0.85280097  0.05416878  0.64002203  1  -0.238717  0  0.007789  -0.067564  0  1.626399  0
Cl  Cl254  1  0.35280434  0.05416827  0.85997804  1  -0.238653  0  0.00782  -0.067536  0  1.626384  0
Cl  Cl255  1  0.14718411  0.94582497  0.35997652  1  -0.238669  0  0.007866  -0.067475  0  1.626436  0
O  O256  1  0.85948411  0.27649730  0.95590736  1  -1.188623  0  -0.331023  -0.568451  0  2.173105  0
O  O257  1  0.64048459  0.72350430  0.45591364  1  -1.188352  0  -0.331176  -0.568484  0  2.172991  0
O  O258  1  0.14048967  0.72350346  0.04408820  1  -1.188432  0  -0.331115  -0.568454  0  2.173069  0
O  O259  1  0.35949540  0.27649788  0.54409037  1  -1.188542  0  -0.331058  -0.568483  0  2.172969  0
O  O260  1  0.15535573  0.12403523  0.04130592  1  -1.16495  0  -0.337037  -0.556164  0  2.296792  0
O  O261  1  0.34463462  0.87596681  0.54130259  1  -1.165165  0  -0.337016  -0.556234  0  2.296852  0
O  O262  1  0.84463830  0.87596135  0.95869411  1  -1.165358  0  -0.337036  -0.556249  0  2.296838  0
O  O263  1  0.65536297  0.12404593  0.45869496  1  -1.16522  0  -0.337093  -0.55635  0  2.296914  0
O  O264  1  0.90047032  0.17072833  0.03335351  1  -1.179009  0  -0.335689  -0.549061  0  2.251377  0
O  O265  1  0.59951951  0.82927145  0.53336648  1  -1.179193  0  -0.33588  -0.549195  0  2.251087  0
O  O266  1  0.09952363  0.82926755  0.96663560  1  -1.178962  0  -0.335802  -0.549135  0  2.251252  0
O  O267  1  0.40047500  0.17072935  0.46664299  1  -1.179017  0  -0.335744  -0.549068  0  2.251345  0
O  O268  1  0.29233395  0.22880482  0.99872734  1  -1.186166  0  -0.328447  -0.558303  0  2.177539  0
O  O269  1  0.20766263  0.77119070  0.49872311  1  -1.186432  0  -0.328517  -0.55836  0  2.177553  0
O  O270  1  0.70766434  0.77119879  0.00128561  1  -1.186285  0  -0.328512  -0.558419  0  2.177633  0
O  O271  1  0.79234123  0.22881644  0.50127693  1  -1.186349  0  -0.328534  -0.558388  0  2.177413  0
