# generated using pymatgen
data_CuH10C5N5O
_symmetry_space_group_name_H-M   'P 1'
_cell_length_a   7.90017221
_cell_length_b   9.01706455
_cell_length_c   11.37964257
_cell_angle_alpha   89.99961387
_cell_angle_beta   90.00040337
_cell_angle_gamma   101.08242724
_symmetry_Int_Tables_number   1
_chemical_formula_structural   CuH10C5N5O
_chemical_formula_sum   'Cu4 H40 C20 N20 O4'
_cell_volume   795.52717878
_cell_formula_units_Z   4
loop_
 _symmetry_equiv_pos_site_id
 _symmetry_equiv_pos_as_xyz
  1  'x, y, z'
loop_
 _atom_site_type_symbol
 _atom_site_label
 _atom_site_symmetry_multiplicity
 _atom_site_fract_x
 _atom_site_fract_y
 _atom_site_fract_z
 _atom_site_occupancy
 _atom_site_pbe_cm5_charge
 _atom_site_pbe_ddec_charge
 _atom_site_pbe_ddec_spin_density
 _atom_site_pbe_ddec_sum_bond_order
 _atom_site_pbe_magmom
Cu  Cu0  1  0.31993512  0.00732817  0.07765961  1  0.727086  0.642266  0.534179  2.356677  0.394
Cu  Cu1  1  0.18006830  0.49266856  0.57765874  1  0.727076  0.642232  0.53415  2.35682  0.394
Cu  Cu2  1  0.68005622  0.99265959  0.92234431  1  0.72703  0.64215  -0.534151  2.357022  -0.394
Cu  Cu3  1  0.81994346  0.50733729  0.42234167  1  0.727055  0.642207  -0.534185  2.3569  -0.394
H  H4  1  0.14678617  0.36263983  0.11002217  1  0.109187  0.093168  0.00105  0.989953  0.001
H  H5  1  0.35320313  0.13734875  0.61002317  1  0.109213  0.093075  0.001051  0.99007  0.001
H  H6  1  0.85318549  0.63733323  0.88997033  1  0.109209  0.093059  -0.001051  0.990001  -0.001
H  H7  1  0.64681292  0.86265935  0.38997812  1  0.109212  0.093058  -0.00105  0.990024  -0.001
H  H8  1  0.07988786  0.24509253  0.23258505  1  0.104105  0.086378  0.000475  1.000514  0.001
H  H9  1  0.42011186  0.25489745  0.73258222  1  0.104108  0.086377  0.000475  1.000559  0.001
H  H10  1  0.92008705  0.75488957  0.76741184  1  0.104044  0.086248  -0.000476  1.000627  -0.001
H  H11  1  0.57990441  0.74511743  0.26741379  1  0.104068  0.086276  -0.000475  1.000574  -0.001
H  H12  1  0.44029130  0.34888960  0.12840136  1  0.107933  0.085897  0.000241  1.035703  0.0
H  H13  1  0.05970443  0.15111016  0.62840876  1  0.107976  0.085997  0.000241  1.03566  0.0
H  H14  1  0.55968633  0.65110494  0.87159202  1  0.107956  0.085896  -0.000241  1.035685  0.0
H  H15  1  0.94031013  0.84889116  0.37159604  1  0.107945  0.085894  -0.000241  1.03573  0.0
H  H16  1  0.37625895  0.36254038  0.27711761  1  0.103194  0.091883  0.001969  0.970946  0.002
H  H17  1  0.12374310  0.13746398  0.77712364  1  0.103219  0.09192  0.001969  0.971022  0.002
H  H18  1  0.62371461  0.63745868  0.72287577  1  0.10317  0.091812  -0.001969  0.971034  -0.002
H  H19  1  0.87627647  0.86254864  0.22288116  1  0.103192  0.091883  -0.001969  0.97096  -0.002
H  H20  1  0.64472954  0.24331577  0.31020222  1  0.091305  0.09106  0.003566  1.05321  0.004
H  H21  1  0.85528323  0.25669671  0.81020874  1  0.091293  0.091022  0.003567  1.053222  0.004
H  H22  1  0.35526089  0.75670250  0.68979203  1  0.091256  0.090997  -0.003566  1.053194  -0.004
H  H23  1  0.14473612  0.74330914  0.18979079  1  0.091278  0.091016  -0.003566  1.053215  -0.004
H  H24  1  0.64430167  0.06303720  0.24424545  1  0.102826  0.124163  0.000451  1.014321  0.001
H  H25  1  0.85571130  0.43697349  0.74424749  1  0.102843  0.124195  0.000451  1.014348  0.001
H  H26  1  0.35569789  0.93697655  0.75575935  1  0.102833  0.124182  -0.000451  1.014282  -0.001
H  H27  1  0.14429870  0.56303010  0.25575292  1  0.102863  0.124207  -0.000451  1.01426  -0.001
H  H28  1  0.66405932  0.22549096  0.15367104  1  0.104366  0.124804  0.00019  1.030596  0.0
H  H29  1  0.83594302  0.27451584  0.65367824  1  0.104324  0.124793  0.00019  1.030573  0.0
H  H30  1  0.33592839  0.77451488  0.84632410  1  0.104338  0.124809  -0.00019  1.030513  0.0
H  H31  1  0.16406926  0.72548662  0.34632304  1  0.104322  0.124795  -0.00019  1.030555  0.0
H  H32  1  0.37401372  0.96277656  0.34111449  1  0.105289  0.122765  0.00036  1.005749  0.001
H  H33  1  0.12601019  0.53722950  0.84111052  1  0.105244  0.1227  0.00036  1.005831  0.001
H  H34  1  0.62599723  0.03723720  0.65889910  1  0.10525  0.12274  -0.00036  1.00582  -0.001
H  H35  1  0.87400182  0.46277747  0.15888901  1  0.105286  0.122739  -0.00036  1.00575  -0.001
H  H36  1  0.19193060  0.05001883  0.32057367  1  0.102925  0.115861  2.9e-05  1.029384  0.0
H  H37  1  0.30808705  0.44997958  0.82056838  1  0.102842  0.115694  2.9e-05  1.029565  0.0
H  H38  1  0.80806779  0.94997797  0.67943553  1  0.10288  0.115762  -2.9e-05  1.029533  0.0
H  H39  1  0.69192949  0.55003078  0.17942764  1  0.102888  0.115791  -2.9e-05  1.029434  0.0
H  H40  1  0.37088137  0.14266140  0.40603261  1  0.099693  0.122301  0.002715  0.997017  0.003
H  H41  1  0.12913900  0.35734545  0.90603045  1  0.099724  0.122366  0.002716  0.997017  0.003
H  H42  1  0.62911869  0.85735461  0.59397044  1  0.099653  0.122296  -0.002715  0.996984  -0.003
H  H43  1  0.87087983  0.64266378  0.09396469  1  0.099687  0.122265  -0.002715  0.997047  -0.003
C  C44  1  0.00140303  0.92566378  0.96978985  1  0.20142  0.331069  1.6e-05  4.252235  -0.001
C  C45  1  0.49859750  0.57432781  0.46978772  1  0.201471  0.331098  1.3e-05  4.252114  -0.001
C  C46  1  0.99859139  0.07431494  0.03021232  1  0.201495  0.331138  -1.5e-05  4.252011  0.001
C  C47  1  0.50141249  0.42567578  0.53020742  1  0.201542  0.331159  -1.7e-05  4.25211  0.001
C  C48  1  0.17005378  0.26240000  0.15794580  1  -0.068661  -0.028039  0.001247  3.93262  0.0
C  C49  1  0.32994452  0.23759277  0.65794614  1  -0.068599  -0.027793  0.001248  3.932722  0.0
C  C50  1  0.82992619  0.73758211  0.84205198  1  -0.068601  -0.027711  -0.001248  3.93276  0.0
C  C51  1  0.67006900  0.76241533  0.34205427  1  -0.068611  -0.02769  -0.001247  3.932385  0.0
C  C52  1  0.35765920  0.29022621  0.19808189  1  -0.071398  -0.095024  0.002  3.846217  0.0
C  C53  1  0.14233967  0.20977306  0.69808586  1  -0.071518  -0.095297  0.002001  3.846451  0.0
C  C54  1  0.64232072  0.70976720  0.80191413  1  -0.071499  -0.095082  -0.002001  3.846574  0.0
C  C55  1  0.85767360  0.79023392  0.30191631  1  -0.071501  -0.09522  -0.002001  3.846509  0.0
C  C56  1  0.60333515  0.17133561  0.23304611  1  -0.154485  -0.286799  0.000615  3.887773  -0.002
C  C57  1  0.89667621  0.32867403  0.73305069  1  -0.15445  -0.286797  0.000615  3.887877  -0.002
C  C58  1  0.39666216  0.82867362  0.76695166  1  -0.154454  -0.286787  -0.000615  3.887826  0.002
C  C59  1  0.10333554  0.67133182  0.26694884  1  -0.154445  -0.286779  -0.000615  3.887771  0.002
C  C60  1  0.33264630  0.07088292  0.32842394  1  -0.148841  -0.286771  0.000724  3.874425  -0.001
C  C61  1  0.16737241  0.42911996  0.82842071  1  -0.148749  -0.286667  0.000724  3.874663  -0.001
C  C62  1  0.66735431  0.92912405  0.67158350  1  -0.148736  -0.286699  -0.000724  3.87448  0.001
C  C63  1  0.83264237  0.57088815  0.17157619  1  -0.148809  -0.286603  -0.000724  3.874332  0.001
N  N64  1  0.14345086  0.12893570  0.08394289  1  -0.413982  -0.379543  0.046516  3.626361  0.056
N  N65  1  0.35654278  0.37105081  0.58394352  1  -0.414066  -0.379658  0.046523  3.626434  0.056
N  N66  1  0.85652485  0.87103849  0.91605401  1  -0.413969  -0.37957  -0.046523  3.626189  -0.056
N  N67  1  0.64346520  0.62894939  0.41605425  1  -0.414018  -0.379615  -0.046518  3.626067  -0.056
N  N68  1  0.41475735  0.14535561  0.22165345  1  -0.352539  -0.003586  0.067834  3.550697  0.085
N  N69  1  0.08524981  0.35464575  0.72165461  1  -0.35255  -0.003452  0.067839  3.550925  0.085
N  N70  1  0.58523520  0.85464345  0.77834784  1  -0.35248  -0.003481  -0.067833  3.550706  -0.085
N  N71  1  0.91476170  0.64535896  0.27834580  1  -0.352488  -0.003548  -0.067827  3.550776  -0.085
N  N72  1  0.48478720  0.87007536  0.07897760  1  -0.349387  -0.560079  0.021576  3.132325  0.024
N  N73  1  0.01521453  0.62991672  0.57897523  1  -0.349404  -0.560096  0.021577  3.132362  0.024
N  N74  1  0.51520893  0.12991692  0.92102456  1  -0.349441  -0.560204  -0.021576  3.132396  -0.024
N  N75  1  0.98479222  0.37007783  0.42102254  1  -0.349449  -0.560182  -0.021574  3.132303  -0.024
N  N76  1  0.43073291  0.73531566  0.07083259  1  0.075709  0.413308  -7.3e-05  4.471436  -0.004
N  N77  1  0.06926013  0.76467760  0.57083767  1  0.075593  0.413154  -7.3e-05  4.471798  -0.004
N  N78  1  0.56926195  0.26467662  0.92916606  1  0.075652  0.413264  7.3e-05  4.47176  0.004
N  N79  1  0.93073699  0.23531920  0.42916889  1  0.075703  0.413264  7.3e-05  4.471391  0.004
N  N80  1  0.38513702  0.60468092  0.06349340  1  -0.172132  -0.348165  0.037177  2.617069  0.04
N  N81  1  0.11484734  0.89531352  0.56350679  1  -0.171992  -0.347957  0.037178  2.617344  0.04
N  N82  1  0.61485834  0.39531362  0.93650085  1  -0.172035  -0.348036  -0.037181  2.617343  -0.04
N  N83  1  0.88513813  0.10468215  0.43650855  1  -0.172096  -0.348074  -0.03718  2.617018  -0.04
O  O84  1  0.13707815  0.86770331  0.97626593  1  -0.303525  -0.456798  0.040947  2.314692  0.054
O  O85  1  0.36291636  0.63228936  0.47626635  1  -0.303592  -0.456852  0.040948  2.314434  0.054
O  O86  1  0.86289981  0.13227540  0.02373272  1  -0.303626  -0.456904  -0.040948  2.314234  -0.054
O  O87  1  0.63709237  0.36771422  0.52373055  1  -0.303645  -0.456895  -0.040944  2.314496  -0.054
