# generated using pymatgen
data_FeAg2H16(C7N2)4
_symmetry_space_group_name_H-M   'P 1'
_cell_length_a   9.29415744
_cell_length_b   10.79321359
_cell_length_c   13.13733297
_cell_angle_alpha   90.00282859
_cell_angle_beta   92.97256126
_cell_angle_gamma   90.00294543
_symmetry_Int_Tables_number   1
_chemical_formula_structural   FeAg2H16(C7N2)4
_chemical_formula_sum   'Fe2 Ag4 H32 C56 N16'
_cell_volume   1316.08293848
_cell_formula_units_Z   2
loop_
 _symmetry_equiv_pos_site_id
 _symmetry_equiv_pos_as_xyz
  1  'x, y, z'
loop_
 _atom_site_type_symbol
 _atom_site_label
 _atom_site_symmetry_multiplicity
 _atom_site_fract_x
 _atom_site_fract_y
 _atom_site_fract_z
 _atom_site_occupancy
 _atom_site_hle17_bader_spin_density
 _atom_site_hle17_ddec_charge
 _atom_site_hle17_ddec_spin_density
 _atom_site_hle17_ddec_sum_bond_order
 _atom_site_hle17_magmom
 _atom_site_hse06_10hf_bader_spin_density
 _atom_site_hse06_10hf_ddec_charge
 _atom_site_hse06_10hf_ddec_spin_density
 _atom_site_hse06_10hf_ddec_sum_bond_order
 _atom_site_hse06_10hf_magmom
 _atom_site_hse06_bader_spin_density
 _atom_site_hse06_ddec_charge
 _atom_site_hse06_ddec_spin_density
 _atom_site_hse06_ddec_sum_bond_order
 _atom_site_hse06_magmom
 _atom_site_pbe_bader_spin_density
 _atom_site_pbe_cm5_charge
 _atom_site_pbe_ddec_charge
 _atom_site_pbe_ddec_spin_density
 _atom_site_pbe_ddec_sum_bond_order
 _atom_site_pbe_magmom
Fe  Fe0  1  0.98163431  0.49686556  0.98980342  1  0  0.619389  0  3.220809  0  0  0.591572  0  3.70563  0  0  0.63541  0  3.646563  0  0  0.805499  0.567964  0  3.738662  0
Fe  Fe1  1  0.48163122  0.00315978  0.48980952  1  0  0.619615  0  3.220576  0  0  0.591577  0  3.705438  0  0  0.635437  0  3.646353  0  0  0.805426  0.567978  0  3.738492  0
Ag  Ag2  1  0.26326349  0.18089198  0.80858960  1  0  0.297277  0  2.030644  0  0  0.178965  0  2.523038  0  0  0.189818  0  2.484623  0  0  0.343908  0.172249  0  2.547543  0
Ag  Ag3  1  0.24311495  0.68036205  0.69168520  1  0  0.293068  0  2.035307  0  0  0.173689  0  2.528434  0  0  0.184569  0  2.490057  0  0  0.342327  0.167379  0  2.552099  0
Ag  Ag4  1  0.74309105  0.81963074  0.19168238  1  0  0.292815  0  2.035402  0  0  0.173403  0  2.528504  0  0  0.184272  0  2.490133  0  0  0.342205  0.167084  0  2.552166  0
Ag  Ag5  1  0.76325527  0.31912761  0.30856703  1  0  0.297359  0  2.030554  0  0  0.179027  0  2.522997  0  0  0.189891  0  2.484587  0  0  0.343962  0.172318  0  2.54751  0
H  H6  1  0.33109561  0.42783212  0.01374573  1  0  0.085382  0  0.940001  0  0  0.094293  0  1.002908  0  0  0.094641  0  1.00353  0  0  0.118979  0.094163  0  1.002771  0
H  H7  1  0.17013493  0.94139167  0.49436043  1  0  0.095736  0  0.943178  0  0  0.104025  0  1.00437  0  0  0.105063  0  1.00347  0  0  0.124276  0.10284  0  1.006019  0
H  H8  1  0.67019010  0.55880514  0.99427275  1  0  0.095446  0  0.943162  0  0  0.103728  0  1.004334  0  0  0.104778  0  1.003396  0  0  0.124164  0.102541  0  1.005988  0
H  H9  1  0.83110574  0.07231353  0.51378109  1  0  0.085308  0  0.940243  0  0  0.094128  0  1.003247  0  0  0.094484  0  1.003854  0  0  0.118757  0.093999  0  1.003107  0
H  H10  1  0.54951955  0.44694057  0.13497698  1  0  0.109866  0  0.967787  0  0  0.115607  0  1.037372  0  0  0.118365  0  1.036654  0  0  0.105263  0.113261  0  1.038622  0
H  H11  1  0.95229211  0.95885153  0.37549557  1  0  0.112954  0  0.95994  0  0  0.119293  0  1.027021  0  0  0.122414  0  1.026  0  0  0.108172  0.116723  0  1.028338  0
H  H12  1  0.45235227  0.54129686  0.87539809  1  0  0.112816  0  0.960336  0  0  0.119154  0  1.027453  0  0  0.122276  0  1.02641  0  0  0.108109  0.116588  0  1.028758  0
H  H13  1  0.04951231  0.05324626  0.63502492  1  0  0.109653  0  0.968289  0  0  0.115442  0  1.037756  0  0  0.118209  0  1.037042  0  0  0.105237  0.113067  0  1.039069  0
H  H14  1  0.28255715  0.64827192  0.33776315  1  0  0.111759  0  0.949298  0  0  0.124173  0  1.004829  0  0  0.126408  0  1.004991  0  0  0.11127  0.123207  0  1.003937  0
H  H15  1  0.22073742  0.13894056  0.16132327  1  0  0.113648  0  0.947227  0  0  0.125089  0  1.003578  0  0  0.12771  0  1.003165  0  0  0.112032  0.123473  0  1.003666  0
H  H16  1  0.72072940  0.36087186  0.66135919  1  0  0.113663  0  0.946814  0  0  0.125097  0  1.003188  0  0  0.127716  0  1.002773  0  0  0.11212  0.123484  0  1.003275  0
H  H17  1  0.78260592  0.85165360  0.83768822  1  0  0.111813  0  0.948803  0  0  0.124264  0  1.004384  0  0  0.126485  0  1.00455  0  0  0.111422  0.123312  0  1.003448  0
H  H18  1  0.07568981  0.62020319  0.20746052  1  0  0.079991  0  0.95659  0  0  0.089578  0  1.020375  0  0  0.090079  0  1.020318  0  0  0.117556  0.089842  0  1.019571  0
H  H19  1  0.42839055  0.11188752  0.28797619  1  0  0.087026  0  0.963872  0  0  0.09657  0  1.025629  0  0  0.097486  0  1.024357  0  0  0.122184  0.095984  0  1.026506  0
H  H20  1  0.92838639  0.38795006  0.78801338  1  0  0.087096  0  0.963752  0  0  0.096521  0  1.025577  0  0  0.097406  0  1.024382  0  0  0.12211  0.095964  0  1.026393  0
H  H21  1  0.57575243  0.87972107  0.70737981  1  0  0.080062  0  0.956246  0  0  0.089628  0  1.019953  0  0  0.090203  0  1.019818  0  0  0.117624  0.089851  0  1.019182  0
H  H22  1  0.87136191  0.66559640  0.69555734  1  0  0.072702  0  0.94451  0  0  0.080454  0  1.008887  0  0  0.082589  0  1.008191  0  0  0.109322  0.078936  0  1.009471  0
H  H23  1  0.63542273  0.16494009  0.80552400  1  0  0.073334  0  0.941271  0  0  0.081916  0  1.004267  0  0  0.084265  0  1.003324  0  0  0.10969  0.079994  0  1.005332  0
H  H24  1  0.13551272  0.33490875  0.30547725  1  0  0.073686  0  0.941731  0  0  0.082347  0  1.004553  0  0  0.084694  0  1.003618  0  0  0.110061  0.080429  0  1.005617  0
H  H25  1  0.37129661  0.83424201  0.19550703  1  0  0.072239  0  0.944453  0  0  0.080152  0  1.008707  0  0  0.082281  0  1.008015  0  0  0.109232  0.078638  0  1.009284  0
H  H26  1  0.64916376  0.62049591  0.58404254  1  0  0.113495  0  0.94915  0  0  0.123177  0  1.009394  0  0  0.125756  0  1.009362  0  0  0.108411  0.122479  0  1.007517  0
H  H27  1  0.85559486  0.11911585  0.91833149  1  0  0.11515  0  0.948408  0  0  0.124859  0  1.008461  0  0  0.127768  0  1.008091  0  0  0.108142  0.123504  0  1.007422  0
H  H28  1  0.35568799  0.38070597  0.41827834  1  0  0.114987  0  0.948787  0  0  0.124835  0  1.008631  0  0  0.127737  0  1.008281  0  0  0.108069  0.123513  0  1.007551  0
H  H29  1  0.14912521  0.87939730  0.08398856  1  0  0.113341  0  0.948964  0  0  0.12298  0  1.009279  0  0  0.12556  0  1.009245  0  0  0.108259  0.122287  0  1.007408  0
H  H30  1  0.91875504  0.62652844  0.32610142  1  0  0.103393  0  0.968887  0  0  0.109195  0  1.041155  0  0  0.113437  0  1.037821  0  0  0.102695  0.10633  0  1.043396  0
H  H31  1  0.58217774  0.12332894  0.17408406  1  0  0.104447  0  0.968517  0  0  0.111193  0  1.038456  0  0  0.115087  0  1.035723  0  0  0.10344  0.108405  0  1.040773  0
H  H32  1  0.08221954  0.37668659  0.67402095  1  0  0.104153  0  0.968818  0  0  0.110856  0  1.038833  0  0  0.114755  0  1.036097  0  0  0.103201  0.108064  0  1.041151  0
H  H33  1  0.41879958  0.87362383  0.82608248  1  0  0.103055  0  0.969064  0  0  0.108813  0  1.041404  0  0  0.113075  0  1.038057  0  0  0.102542  0.105959  0  1.043625  0
H  H34  1  0.12713305  0.68281852  0.44833877  1  0  0.06259  0  0.958847  0  0  0.070197  0  1.026734  0  0  0.072387  0  1.025256  0  0  0.105475  0.068375  0  1.027756  0
H  H35  1  0.37529990  0.17913442  0.05063794  1  0  0.06212  0  0.957133  0  0  0.069567  0  1.025815  0  0  0.072135  0  1.023686  0  0  0.105371  0.067503  0  1.027395  0
H  H36  1  0.87533814  0.32092369  0.55056049  1  0  0.062115  0  0.956874  0  0  0.069546  0  1.025631  0  0  0.072114  0  1.023502  0  0  0.105293  0.067481  0  1.02721  0
H  H37  1  0.62715857  0.81728375  0.94831609  1  0  0.062663  0  0.958609  0  0  0.070208  0  1.026564  0  0  0.072448  0  1.025039  0  0  0.10545  0.068386  0  1.027584  0
C  C38  1  0.13264539  0.26794306  0.90728232  1  0  -0.107832  0  3.385046  0  0  -0.091638  0  3.751016  0  0  -0.081625  0  3.751122  0  0  -0.046576  -0.097502  0  3.747741  0
C  C39  1  0.36401171  0.76950189  0.58846732  1  0  -0.104165  0  3.388186  0  0  -0.087658  0  3.754195  0  0  -0.077412  0  3.753801  0  0  -0.045772  -0.093966  0  3.751462  0
C  C40  1  0.86401767  0.73052524  0.08846482  1  0  -0.103801  0  3.388629  0  0  -0.087245  0  3.754625  0  0  -0.076989  0  3.754224  0  0  -0.045509  -0.093558  0  3.751896  0
C  C41  1  0.63268943  0.23206003  0.40727274  1  0  -0.107798  0  3.385156  0  0  -0.091637  0  3.75119  0  0  -0.081629  0  3.751317  0  0  -0.046581  -0.097506  0  3.747922  0
C  C42  1  0.15046268  0.61175309  0.81774920  1  0  -0.081354  0  3.391963  0  0  -0.058439  0  3.745745  0  0  -0.050571  0  3.751656  0  0  -0.036955  -0.063235  0  3.741028  0
C  C43  1  0.34165824  0.11366045  0.67665293  1  0  -0.084773  0  3.390817  0  0  -0.061275  0  3.744357  0  0  -0.053608  0  3.750452  0  0  -0.036987  -0.065826  0  3.739727  0
C  C44  1  0.84160494  0.38638152  0.17662304  1  0  -0.0849  0  3.391036  0  0  -0.061429  0  3.744629  0  0  -0.053763  0  3.750734  0  0  -0.036979  -0.065985  0  3.740008  0
C  C45  1  0.65041632  0.88823671  0.31774259  1  0  -0.081205  0  3.391874  0  0  -0.05821  0  3.745523  0  0  -0.05035  0  3.751446  0  0  -0.036827  -0.063002  0  3.740797  0
C  C46  1  0.32600884  0.47615345  0.08641470  1  0  0.119106  0  3.705861  0  0  0.092864  0  3.957305  0  0  0.098891  0  3.978136  0  0  0.052004  0.08828  0  3.942236  0
C  C47  1  0.17622333  0.98439621  0.41982532  1  0  0.119257  0  3.649536  0  0  0.089757  0  3.899448  0  0  0.101374  0  3.914208  0  0  0.047335  0.080418  0  3.891663  0
C  C48  1  0.67627720  0.51572040  0.91975947  1  0  0.119281  0  3.648905  0  0  0.089976  0  3.898638  0  0  0.101583  0  3.913396  0  0  0.047271  0.08064  0  3.890861  0
C  C49  1  0.82601765  0.02396671  0.58642754  1  0  0.118812  0  3.706699  0  0  0.092716  0  3.957951  0  0  0.098738  0  3.978793  0  0  0.052124  0.088143  0  3.94287  0
C  C50  1  0.44634316  0.48690284  0.15333563  1  0  -0.165464  0  3.679225  0  0  -0.179726  0  3.917201  0  0  -0.18792  0  3.939094  0  0  -0.076105  -0.172443  0  3.900738  0
C  C51  1  0.05581355  0.99472119  0.35358458  1  0  -0.161297  0  3.689147  0  0  -0.177079  0  3.933572  0  0  -0.184954  0  3.949669  0  0  -0.076609  -0.171187  0  3.923185  0
C  C52  1  0.55585706  0.50535646  0.85351855  1  0  -0.161006  0  3.689403  0  0  -0.177015  0  3.933668  0  0  -0.184888  0  3.949826  0  0  -0.076519  -0.171122  0  3.923284  0
C  C53  1  0.94635019  0.01322575  0.65334871  1  0  -0.164811  0  3.679367  0  0  -0.179014  0  3.917109  0  0  -0.187217  0  3.939011  0  0  -0.075795  -0.171741  0  3.900647  0
C  C54  1  0.43251030  0.55006169  0.24620625  1  0  0.164937  0  3.887225  0  0  0.177189  0  4.109819  0  0  0.183044  0  4.130648  0  0  0.018713  0.173138  0  4.095553  0
C  C55  1  0.06841022  0.05098760  0.25757139  1  0  0.162286  0  3.888922  0  0  0.170943  0  4.117635  0  0  0.181935  0  4.133018  0  0  0.012848  0.162313  0  4.108585  0
C  C56  1  0.56844143  0.44900177  0.75753365  1  0  0.161972  0  3.889997  0  0  0.171045  0  4.1181  0  0  0.181995  0  4.133569  0  0  0.012953  0.162419  0  4.109055  0
C  C57  1  0.93252795  0.94999558  0.74618992  1  0  0.164748  0  3.886918  0  0  0.176944  0  4.109536  0  0  0.182803  0  4.130352  0  0  0.018488  0.172899  0  4.095269  0
C  C58  1  0.29636828  0.59848139  0.26688313  1  0  -0.164283  0  3.698351  0  0  -0.178981  0  3.936542  0  0  -0.186939  0  3.958494  0  0  -0.074338  -0.174131  0  3.921891  0
C  C59  1  0.20603090  0.09379925  0.23411905  1  0  -0.161773  0  3.704803  0  0  -0.175784  0  3.946729  0  0  -0.183968  0  3.964052  0  0  -0.075774  -0.171602  0  3.937552  0
C  C60  1  0.70603753  0.40610122  0.73412402  1  0  -0.161307  0  3.705073  0  0  -0.175468  0  3.9468  0  0  -0.183632  0  3.964142  0  0  -0.075725  -0.171285  0  3.937615  0
C  C61  1  0.79639783  0.90150902  0.76683505  1  0  -0.16452  0  3.697582  0  0  -0.179267  0  3.93585  0  0  -0.187216  0  3.95781  0  0  -0.074565  -0.174409  0  3.921196  0
C  C62  1  0.18248886  0.58310410  0.19543896  1  0  0.11693  0  3.727208  0  0  0.08914  0  3.983259  0  0  0.09531  0  4.003458  0  0  0.052667  0.084966  0  3.968733  0
C  C63  1  0.32132858  0.07925679  0.30373927  1  0  0.116057  0  3.674047  0  0  0.085003  0  3.927692  0  0  0.09631  0  3.942857  0  0  0.046237  0.07626  0  3.919579  0
C  C64  1  0.82133728  0.42065205  0.80374263  1  0  0.115671  0  3.675152  0  0  0.08484  0  3.928693  0  0  0.096126  0  3.943853  0  0  0.046157  0.076072  0  3.920636  0
C  C65  1  0.68253365  0.91687975  0.69538391  1  0  0.117354  0  3.726727  0  0  0.089654  0  3.982723  0  0  0.095775  0  4.002896  0  0  0.052942  0.085509  0  3.968218  0
C  C66  1  0.87658105  0.65849049  0.61292896  1  0  0.116448  0  3.746144  0  0  0.088643  0  4.004378  0  0  0.093733  0  4.023552  0  0  0.04003  0.085375  0  3.991259  0
C  C67  1  0.62853420  0.15673448  0.88793938  1  0  0.114425  0  3.745174  0  0  0.086287  0  4.004326  0  0  0.091442  0  4.022276  0  0  0.039217  0.082891  0  3.992574  0
C  C68  1  0.12861764  0.34316812  0.38787738  1  0  0.114068  0  3.745703  0  0  0.085645  0  4.005107  0  0  0.090796  0  4.023071  0  0  0.03829  0.082239  0  3.99337  0
C  C69  1  0.37655704  0.84142656  0.11288414  1  0  0.116315  0  3.745418  0  0  0.088419  0  4.003688  0  0  0.093511  0  4.022863  0  0  0.039968  0.085155  0  3.99057  0
C  C70  1  0.75390859  0.63143653  0.55166457  1  0  -0.142512  0  3.654254  0  0  -0.158452  0  3.892974  0  0  -0.165085  0  3.914029  0  0  -0.073277  -0.153882  0  3.877999  0
C  C71  1  0.75030104  0.12942373  0.94999602  1  0  -0.137978  0  3.647481  0  0  -0.156027  0  3.886765  0  0  -0.161038  0  3.905988  0  0  -0.073793  -0.153066  0  3.874036  0
C  C72  1  0.25038381  0.37045279  0.44994268  1  0  -0.137799  0  3.647165  0  0  -0.155853  0  3.886395  0  0  -0.160869  0  3.905617  0  0  -0.073466  -0.152919  0  3.873655  0
C  C73  1  0.25388738  0.86849735  0.05162019  1  0  -0.141575  0  3.65391  0  0  -0.157531  0  3.892632  0  0  -0.164156  0  3.913698  0  0  -0.072963  -0.152987  0  3.877669  0
C  C74  1  0.76774757  0.61882110  0.44606437  1  0  0.162491  0  3.874769  0  0  0.172516  0  4.098809  0  0  0.178382  0  4.119418  0  0  0.017195  0.168349  0  4.085664  0
C  C75  1  0.73508465  0.11622613  0.05544190  1  0  0.161645  0  3.873499  0  0  0.175007  0  4.093879  0  0  0.179605  0  4.113624  0  0  0.017475  0.171865  0  4.081942  0
C  C76  1  0.23514401  0.38369635  0.55538379  1  0  0.161013  0  3.873445  0  0  0.174499  0  4.093635  0  0  0.17909  0  4.113391  0  0  0.017529  0.171354  0  4.081705  0
C  C77  1  0.26774785  0.88118348  0.94602743  1  0  0.162012  0  3.875636  0  0  0.172071  0  4.099681  0  0  0.177922  0  4.120294  0  0  0.017291  0.167921  0  4.086534  0
C  C78  1  0.90497023  0.63627282  0.40749504  1  0  -0.15945  0  3.697968  0  0  -0.175154  0  3.942296  0  0  -0.182271  0  3.962366  0  0  -0.078764  -0.171638  0  3.929949  0
C  C79  1  0.59702178  0.13321173  0.09285724  1  0  -0.156527  0  3.694517  0  0  -0.17335  0  3.938316  0  0  -0.179246  0  3.957532  0  0  -0.079138  -0.171369  0  3.927754  0
C  C80  1  0.09706312  0.36677639  0.59278838  1  0  -0.156001  0  3.694768  0  0  -0.172803  0  3.938673  0  0  -0.178688  0  3.957872  0  0  -0.079021  -0.170825  0  3.928109  0
C  C81  1  0.40498961  0.86381147  0.90746680  1  0  -0.15877  0  3.697976  0  0  -0.174424  0  3.942228  0  0  -0.181548  0  3.962304  0  0  -0.078663  -0.170926  0  3.929881  0
C  C82  1  0.01937265  0.66650855  0.47504777  1  0  0.113756  0  3.756142  0  0  0.089172  0  4.005418  0  0  0.093485  0  4.02653  0  0  0.037803  0.08686  0  3.991317  0
C  C83  1  0.48347757  0.16325382  0.02459952  1  0  0.110919  0  3.75907  0  0  0.085997  0  4.00973  0  0  0.090738  0  4.029167  0  0  0.036073  0.083009  0  3.997598  0
C  C84  1  0.98352013  0.33674172  0.52451987  1  0  0.110911  0  3.758964  0  0  0.08585  0  4.009633  0  0  0.090595  0  4.029065  0  0  0.03603  0.082868  0  3.997491  0
C  C85  1  0.51938113  0.83353961  0.97501647  1  0  0.11326  0  3.756189  0  0  0.088716  0  4.005484  0  0  0.092982  0  4.026601  0  0  0.037785  0.086412  0  3.991383  0
C  C86  1  0.55027621  0.56798231  0.31684133  1  0  -0.09351  0  3.831416  0  0  -0.093083  0  4.083909  0  0  -0.096184  0  4.110864  0  0  -0.027489  -0.091348  0  4.064871  0
C  C87  1  0.95054670  0.06749312  0.18707907  1  0  -0.09828  0  3.835625  0  0  -0.095455  0  4.089933  0  0  -0.099427  0  4.112118  0  0  -0.030329  -0.093347  0  4.075739  0
C  C88  1  0.45057636  0.43247091  0.68703580  1  0  -0.098184  0  3.835482  0  0  -0.095478  0  4.089679  0  0  -0.099437  0  4.111876  0  0  -0.030333  -0.093369  0  4.075479  0
C  C89  1  0.05028900  0.93207436  0.81681924  1  0  -0.093346  0  3.831669  0  0  -0.092863  0  4.08411  0  0  -0.095971  0  4.111072  0  0  -0.027382  -0.091125  0  4.065071  0
C  C90  1  0.64869513  0.59048290  0.37898078  1  0  -0.068622  0  3.827457  0  0  -0.064852  0  4.076352  0  0  -0.068902  0  4.104274  0  0  -0.02047  -0.061384  0  4.056557  0
C  C91  1  0.85317929  0.08852264  0.12353730  1  0  -0.065693  0  3.824389  0  0  -0.064567  0  4.073202  0  0  -0.063371  0  4.096336  0  0  -0.023535  -0.066366  0  4.058664  0
C  C92  1  0.35323194  0.41142677  0.62347460  1  0  -0.065132  0  3.824065  0  0  -0.064123  0  4.073003  0  0  -0.062916  0  4.096133  0  0  -0.023334  -0.065915  0  4.058452  0
C  C93  1  0.14871016  0.90955036  0.87894421  1  0  -0.068895  0  3.827849  0  0  -0.065149  0  4.076766  0  0  -0.069199  0  4.104709  0  0  -0.020684  -0.061687  0  4.056961  0
N  N94  1  0.08407766  0.57389189  0.88471727  1  0  -0.329252  0  3.358971  0  0  -0.296242  0  3.655443  0  0  -0.317831  0  3.671655  0  0  -0.390746  -0.283229  0  3.643197  0
N  N95  1  0.39244483  0.07808976  0.60206464  1  0  -0.32902  0  3.357747  0  0  -0.296372  0  3.65452  0  0  -0.318133  0  3.671417  0  0  -0.39122  -0.283135  0  3.641662  0
N  N96  1  0.89239692  0.42195090  0.10203873  1  0  -0.328889  0  3.358135  0  0  -0.296231  0  3.654893  0  0  -0.318001  0  3.671805  0  0  -0.391275  -0.282993  0  3.64204  0
N  N97  1  0.58403696  0.92610921  0.38471092  1  0  -0.32938  0  3.35903  0  0  -0.29638  0  3.655481  0  0  -0.317968  0  3.671688  0  0  -0.390777  -0.283369  0  3.643233  0
N  N98  1  0.06618682  0.34501993  0.94722393  1  0  -0.326202  0  3.36396  0  0  -0.292807  0  3.662625  0  0  -0.312539  0  3.675946  0  0  -0.389529  -0.280144  0  3.651302  0
N  N99  1  0.41328153  0.84933225  0.54031089  1  0  -0.325721  0  3.362004  0  0  -0.292414  0  3.660166  0  0  -0.311904  0  3.67289  0  0  -0.389862  -0.280128  0  3.650029  0
N  N100  1  0.91329875  0.65070157  0.04030202  1  0  -0.326068  0  3.362647  0  0  -0.292833  0  3.660876  0  0  -0.312306  0  3.673562  0  0  -0.390123  -0.280563  0  3.650797  0
N  N101  1  0.56621398  0.15498818  0.44721651  1  0  -0.326238  0  3.363705  0  0  -0.292824  0  3.66243  0  0  -0.312571  0  3.675764  0  0  -0.389497  -0.280142  0  3.65104  0
N  N102  1  0.19709477  0.52329937  0.10710768  1  0  -0.232112  0  3.14476  0  0  -0.187428  0  3.410957  0  0  -0.207076  0  3.428851  0  0  -0.275579  -0.17122  0  3.397027  0
N  N103  1  0.30887811  0.02503726  0.39616422  1  0  -0.19722  0  3.299413  0  0  -0.149095  0  3.575431  0  0  -0.173913  0  3.592402  0  0  -0.31382  -0.132224  0  3.562563  0
N  N104  1  0.80890224  0.47498221  0.89613019  1  0  -0.197081  0  3.300034  0  0  -0.149141  0  3.576011  0  0  -0.173932  0  3.592966  0  0  -0.313805  -0.132266  0  3.563147  0
N  N105  1  0.69712311  0.97673633  0.60708078  1  0  -0.23242  0  3.145251  0  0  -0.187842  0  3.411494  0  0  -0.207504  0  3.429419  0  0  -0.275879  -0.171637  0  3.397556  0
N  N106  1  0.00685472  0.67703367  0.57607552  1  0  -0.299918  0  3.192685  0  0  -0.240822  0  3.467609  0  0  -0.254243  0  3.483546  0  0  -0.327258  -0.232157  0  3.456885  0
N  N107  1  0.49730798  0.17450401  0.92369369  1  0  -0.298669  0  3.200373  0  0  -0.239286  0  3.477036  0  0  -0.251529  0  3.491379  0  0  -0.327652  -0.231869  0  3.4679  0
N  N108  1  0.99737088  0.32544485  0.42361721  1  0  -0.298755  0  3.200247  0  0  -0.238983  0  3.476643  0  0  -0.251228  0  3.490994  0  0  -0.32729  -0.231566  0  3.467509  0
N  N109  1  0.50684517  0.82292133  0.07603399  1  0  -0.29938  0  3.192742  0  0  -0.240281  0  3.46758  0  0  -0.253704  0  3.483549  0  0  -0.327107  -0.231615  0  3.456844  0
