# generated using pymatgen
data_Zn3H10C12(N2O7)2
_symmetry_space_group_name_H-M   'P 1'
_cell_length_a   7.02612828
_cell_length_b   11.16551159
_cell_length_c   11.72368009
_cell_angle_alpha   89.99996033
_cell_angle_beta   103.98566619
_cell_angle_gamma   89.99985442
_symmetry_Int_Tables_number   1
_chemical_formula_structural   Zn3H10C12(N2O7)2
_chemical_formula_sum   'Zn6 H20 C24 N8 O28'
_cell_volume   892.46224701
_cell_formula_units_Z   2
loop_
 _symmetry_equiv_pos_site_id
 _symmetry_equiv_pos_as_xyz
  1  'x, y, z'
loop_
 _atom_site_type_symbol
 _atom_site_label
 _atom_site_symmetry_multiplicity
 _atom_site_fract_x
 _atom_site_fract_y
 _atom_site_fract_z
 _atom_site_occupancy
 _atom_site_hle17_bader_spin_density
 _atom_site_hle17_ddec_charge
 _atom_site_hle17_ddec_spin_density
 _atom_site_hle17_ddec_sum_bond_order
 _atom_site_hle17_magmom
 _atom_site_hse06_10hf_bader_spin_density
 _atom_site_hse06_10hf_ddec_charge
 _atom_site_hse06_10hf_ddec_spin_density
 _atom_site_hse06_10hf_ddec_sum_bond_order
 _atom_site_hse06_10hf_magmom
 _atom_site_hse06_bader_spin_density
 _atom_site_hse06_ddec_charge
 _atom_site_hse06_ddec_spin_density
 _atom_site_hse06_ddec_sum_bond_order
 _atom_site_hse06_magmom
 _atom_site_pbe_bader_spin_density
 _atom_site_pbe_cm5_charge
 _atom_site_pbe_ddec_charge
 _atom_site_pbe_ddec_spin_density
 _atom_site_pbe_ddec_sum_bond_order
 _atom_site_pbe_magmom
Zn  Zn0  1  0.00000275  0.99999950  0.99999896  1  0  1.242575  0  1.70641  0  0  1.089066  0  2.15674  0  0  1.132832  0  2.097057  0  0  0.697638  1.058061  0  2.198063  0
Zn  Zn1  1  0.50000034  0.49999980  0.49999903  1  0  1.242521  0  1.70645  0  0  1.08902  0  2.156767  0  0  1.132787  0  2.097088  0  0  0.697627  1.058012  0  2.198085  0
Zn  Zn2  1  0.22222806  0.26061388  0.17041419  1  0  1.070584  0  1.739535  0  0  0.882379  0  2.193191  0  0  0.92972  0  2.139715  0  0  0.707079  0.849222  0  2.230185  0
Zn  Zn3  1  0.27776961  0.76061595  0.32958684  1  0  1.070579  0  1.739566  0  0  0.882378  0  2.19321  0  0  0.929709  0  2.139737  0  0  0.707096  0.849223  0  2.230204  0
Zn  Zn4  1  0.77777115  0.73938482  0.82958621  1  0  1.070623  0  1.739513  0  0  0.882444  0  2.193159  0  0  0.929774  0  2.139682  0  0  0.707118  0.849287  0  2.230154  0
Zn  Zn5  1  0.72223106  0.23938633  0.67041548  1  0  1.070639  0  1.739456  0  0  0.882448  0  2.193119  0  0  0.929781  0  2.139642  0  0  0.707101  0.849296  0  2.230115  0
H  H6  1  0.69580201  0.93118728  0.34960637  1  0  0.153701  0  0.935737  0  0  0.158153  0  1.002174  0  0  0.163607  0  0.998965  0  0  0.119337  0.154265  0  1.00465  0
H  H7  1  0.80419866  0.43118600  0.15039950  1  0  0.153724  0  0.935742  0  0  0.1582  0  1.002132  0  0  0.163658  0  0.998922  0  0  0.119356  0.154311  0  1.004608  0
H  H8  1  0.30419718  0.06881500  0.65040000  1  0  0.153702  0  0.935736  0  0  0.158171  0  1.002143  0  0  0.16363  0  0.998933  0  0  0.11936  0.154283  0  1.004619  0
H  H9  1  0.19580494  0.56881181  0.84960324  1  0  0.153717  0  0.935746  0  0  0.158182  0  1.002162  0  0  0.163637  0  0.998954  0  0  0.119341  0.154294  0  1.004637  0
H  H10  1  0.03604419  0.02235424  0.78698304  1  0  0.426444  0  0.881877  0  0  0.391623  0  0.951161  0  0  0.403004  0  0.934931  0  0  0.294445  0.383575  0  0.962624  0
H  H11  1  0.46395815  0.52235340  0.71301600  1  0  0.42642  0  0.881902  0  0  0.391596  0  0.951196  0  0  0.402973  0  0.934969  0  0  0.294436  0.383548  0  0.962657  0
H  H12  1  0.96395502  0.97764625  0.21301565  1  0  0.426424  0  0.881899  0  0  0.391596  0  0.9512  0  0  0.402974  0  0.934973  0  0  0.294423  0.383548  0  0.962663  0
H  H13  1  0.53603959  0.47764530  0.28698248  1  0  0.426452  0  0.881852  0  0  0.391661  0  0.95111  0  0  0.403048  0  0.934869  0  0  0.294457  0.383615  0  0.962572  0
H  H14  1  0.26340577  0.01733769  0.86726480  1  0  0.434582  0  0.867424  0  0  0.400875  0  0.934494  0  0  0.411581  0  0.919194  0  0  0.297818  0.393343  0  0.945234  0
H  H15  1  0.23659660  0.51734086  0.63273511  1  0  0.434589  0  0.867423  0  0  0.400889  0  0.93448  0  0  0.411596  0  0.919179  0  0  0.297825  0.393354  0  0.945224  0
H  H16  1  0.73659345  0.98265922  0.13273390  1  0  0.434607  0  0.86741  0  0  0.400914  0  0.934456  0  0  0.411622  0  0.919154  0  0  0.29782  0.393381  0  0.945197  0
H  H17  1  0.76340261  0.48265963  0.36726359  1  0  0.434574  0  0.867446  0  0  0.400889  0  0.934494  0  0  0.411596  0  0.919193  0  0  0.297818  0.393355  0  0.945237  0
H  H18  1  0.02162601  0.19874311  0.31272247  1  0  0.43251  0  0.848114  0  0  0.402531  0  0.918072  0  0  0.413853  0  0.901706  0  0  0.299282  0.394466  0  0.929708  0
H  H19  1  0.47836902  0.69874496  0.18727565  1  0  0.432502  0  0.848156  0  0  0.402525  0  0.918095  0  0  0.413843  0  0.901733  0  0  0.299298  0.394462  0  0.92973  0
H  H20  1  0.97837174  0.80125559  0.68727516  1  0  0.432555  0  0.848102  0  0  0.402588  0  0.918001  0  0  0.413906  0  0.901639  0  0  0.29935  0.394526  0  0.929632  0
H  H21  1  0.52162873  0.30125732  0.81272453  1  0  0.432505  0  0.848112  0  0  0.402535  0  0.918069  0  0  0.413854  0  0.901703  0  0  0.299308  0.394471  0  0.929704  0
H  H22  1  0.91297245  0.16028832  0.18629184  1  0  0.424051  0  0.874164  0  0  0.395558  0  0.936284  0  0  0.406515  0  0.920498  0  0  0.293217  0.38778  0  0.947487  0
H  H23  1  0.58702363  0.66028981  0.31370500  1  0  0.424058  0  0.874223  0  0  0.395565  0  0.936294  0  0  0.406522  0  0.920507  0  0  0.293217  0.387784  0  0.9475  0
H  H24  1  0.08702677  0.83971038  0.81370514  1  0  0.424047  0  0.874219  0  0  0.395549  0  0.936311  0  0  0.406507  0  0.920522  0  0  0.293213  0.387768  0  0.947518  0
H  H25  1  0.41297412  0.33971068  0.68629433  1  0  0.424034  0  0.874233  0  0  0.395544  0  0.936319  0  0  0.4065  0  0.920532  0  0  0.29321  0.387762  0  0.947525  0
C  C26  1  0.42232704  0.03250864  0.15840998  1  0  0.636447  0  3.854269  0  0  0.583492  0  4.148571  0  0  0.615643  0  4.139486  0  0  0.22599  0.561556  0  4.154271  0
C  C27  1  0.07767168  0.53250923  0.34159220  1  0  0.636196  0  3.854194  0  0  0.583253  0  4.148474  0  0  0.615407  0  4.139388  0  0  0.2259  0.561317  0  4.15417  0
C  C28  1  0.57767363  0.96749095  0.84159234  1  0  0.636073  0  3.854216  0  0  0.583107  0  4.148539  0  0  0.615257  0  4.139458  0  0  0.225836  0.561174  0  4.154235  0
C  C29  1  0.92232753  0.46749127  0.65840820  1  0  0.63612  0  3.854201  0  0  0.583141  0  4.148545  0  0  0.615294  0  4.139461  0  0  0.225863  0.561206  0  4.154241  0
C  C30  1  0.50879095  0.08288419  0.28068197  1  0  0.183684  0  3.732757  0  0  0.177793  0  3.980021  0  0  0.189397  0  3.993889  0  0  0.130745  0.170112  0  3.970729  0
C  C31  1  0.99120839  0.58288510  0.21932137  1  0  0.183738  0  3.732627  0  0  0.177857  0  3.979855  0  0  0.189458  0  3.993726  0  0  0.130762  0.170175  0  3.970568  0
C  C32  1  0.49120825  0.91711451  0.71932013  1  0  0.183795  0  3.73263  0  0  0.1779  0  3.979887  0  0  0.189504  0  3.993756  0  0  0.130765  0.170216  0  3.970599  0
C  C33  1  0.00879668  0.41711539  0.78068074  1  0  0.183781  0  3.73282  0  0  0.177894  0  3.980057  0  0  0.189498  0  3.993919  0  0  0.130751  0.170218  0  3.970758  0
C  C34  1  0.48793096  0.23712787  0.41470966  1  0  0.730028  0  3.823798  0  0  0.67448  0  4.106204  0  0  0.706807  0  4.105808  0  0  0.330574  0.652676  0  4.105913  0
C  C35  1  0.01206976  0.73712427  0.08529097  1  0  0.730068  0  3.823613  0  0  0.674525  0  4.106022  0  0  0.706852  0  4.105626  0  0  0.330593  0.652722  0  4.105732  0
C  C36  1  0.51207412  0.76287710  0.58529074  1  0  0.729852  0  3.823906  0  0  0.674394  0  4.106149  0  0  0.706721  0  4.105756  0  0  0.33053  0.65259  0  4.105859  0
C  C37  1  0.98792653  0.26287085  0.91470729  1  0  0.730081  0  3.823649  0  0  0.6745  0  4.106093  0  0  0.706829  0  4.105694  0  0  0.330573  0.652698  0  4.105804  0
C  C38  1  0.69577955  0.07225123  0.47708912  1  0  0.193365  0  3.730102  0  0  0.184406  0  3.982781  0  0  0.195984  0  3.997477  0  0  0.130744  0.176828  0  3.972689  0
C  C39  1  0.80422132  0.57225078  0.02291445  1  0  0.193281  0  3.730291  0  0  0.184354  0  3.982937  0  0  0.19593  0  3.997638  0  0  0.130711  0.176778  0  3.972844  0
C  C40  1  0.30421965  0.92775016  0.52291554  1  0  0.193309  0  3.730428  0  0  0.184344  0  3.983034  0  0  0.19592  0  3.997735  0  0  0.130725  0.176763  0  3.972949  0
C  C41  1  0.19578082  0.42774792  0.97708723  1  0  0.193329  0  3.73037  0  0  0.184424  0  3.982983  0  0  0.196  0  3.997678  0  0  0.130737  0.176848  0  3.97289  0
C  C42  1  0.83072847  0.01010346  0.58129547  1  0  0.616794  0  3.890573  0  0  0.561281  0  4.194531  0  0  0.592488  0  4.188119  0  0  0.215652  0.540157  0  4.198048  0
C  C43  1  0.66927186  0.51010384  0.91870439  1  0  0.616856  0  3.890552  0  0  0.561277  0  4.194585  0  0  0.59248  0  4.188171  0  0  0.215655  0.540152  0  4.198101  0
C  C44  1  0.16926927  0.98989793  0.41870556  1  0  0.616736  0  3.890619  0  0  0.561243  0  4.194504  0  0  0.592448  0  4.188094  0  0  0.215633  0.540121  0  4.198015  0
C  C45  1  0.33072588  0.48989576  0.08129494  1  0  0.616726  0  3.890702  0  0  0.561148  0  4.194722  0  0  0.592362  0  4.188308  0  0  0.215601  0.540023  0  4.198236  0
C  C46  1  0.64252196  0.01921209  0.36636918  1  0  -0.212015  0  3.671869  0  0  -0.251969  0  3.943882  0  0  -0.264773  0  3.962886  0  0  -0.091861  -0.243938  0  3.931585  0
C  C47  1  0.85747621  0.51921238  0.13363489  1  0  -0.212047  0  3.672043  0  0  -0.252016  0  3.94399  0  0  -0.264819  0  3.962986  0  0  -0.091889  -0.243975  0  3.93167  0
C  C48  1  0.35747577  0.98078751  0.63363357  1  0  -0.212  0  3.672025  0  0  -0.251976  0  3.944012  0  0  -0.26478  0  3.963005  0  0  -0.091882  -0.243935  0  3.931693  0
C  C49  1  0.14252593  0.48078722  0.86636764  1  0  -0.212036  0  3.672148  0  0  -0.252  0  3.94407  0  0  -0.26482  0  3.963109  0  0  -0.091846  -0.243964  0  3.931763  0
N  N50  1  0.43689784  0.18880325  0.30350293  1  0  -0.500401  0  3.192605  0  0  -0.423114  0  3.461546  0  0  -0.448856  0  3.469071  0  0  -0.338473  -0.405974  0  3.456421  0
N  N51  1  0.06310309  0.68880486  0.19649862  1  0  -0.5004  0  3.192406  0  0  -0.423145  0  3.461366  0  0  -0.448885  0  3.46889  0  0  -0.338488  -0.406005  0  3.456245  0
N  N52  1  0.56310283  0.81119545  0.69649854  1  0  -0.500388  0  3.192517  0  0  -0.423144  0  3.461427  0  0  -0.448883  0  3.468951  0  0  -0.338489  -0.406005  0  3.456305  0
N  N53  1  0.93689906  0.31119653  0.80349965  1  0  -0.500496  0  3.192582  0  0  -0.423204  0  3.46153  0  0  -0.448943  0  3.469051  0  0  -0.338528  -0.406067  0  3.456407  0
N  N54  1  0.62436592  0.17830374  0.50053017  1  0  -0.501849  0  3.170202  0  0  -0.423013  0  3.4387  0  0  -0.449261  0  3.447168  0  0  -0.333666  -0.4055  0  3.432846  0
N  N55  1  0.87563364  0.67830373  0.99947117  1  0  -0.501793  0  3.170221  0  0  -0.422972  0  3.438706  0  0  -0.449221  0  3.447177  0  0  -0.333658  -0.405458  0  3.432847  0
N  N56  1  0.37563183  0.82169765  0.49947001  1  0  -0.501812  0  3.170342  0  0  -0.422961  0  3.438744  0  0  -0.44921  0  3.447213  0  0  -0.333663  -0.405446  0  3.432886  0
N  N57  1  0.12436557  0.32169676  0.00052752  1  0  -0.501795  0  3.170179  0  0  -0.422974  0  3.438668  0  0  -0.449222  0  3.447135  0  0  -0.333651  -0.405461  0  3.432811  0
O  O58  1  0.25784806  0.08170045  0.10555985  1  0  -0.674899  0  2.144855  0  0  -0.597811  0  2.430011  0  0  -0.626991  0  2.413415  0  0  -0.313454  -0.577313  0  2.440818  0
O  O59  1  0.24215337  0.58170342  0.39444184  1  0  -0.674812  0  2.144718  0  0  -0.597719  0  2.429848  0  0  -0.626903  0  2.413259  0  0  -0.313422  -0.577221  0  2.440648  0
O  O60  1  0.74215556  0.91829736  0.89443863  1  0  -0.674777  0  2.144822  0  0  -0.597675  0  2.429933  0  0  -0.626852  0  2.413339  0  0  -0.313412  -0.57718  0  2.44074  0
O  O61  1  0.75784437  0.41829886  0.60555920  1  0  -0.674795  0  2.144768  0  0  -0.597675  0  2.429872  0  0  -0.626851  0  2.413275  0  0  -0.313393  -0.57718  0  2.440678  0
O  O62  1  0.50861837  0.95062953  0.11961470  1  0  -0.527635  0  1.971898  0  0  -0.479127  0  2.182903  0  0  -0.499298  0  2.173465  0  0  -0.283635  -0.465265  0  2.189179  0
O  O63  1  0.99138370  0.45062867  0.38038794  1  0  -0.527523  0  1.971819  0  0  -0.479016  0  2.182804  0  0  -0.499187  0  2.173368  0  0  -0.283599  -0.465157  0  2.189077  0
O  O64  1  0.49138230  0.04937186  0.88038761  1  0  -0.527464  0  1.971755  0  0  -0.478924  0  2.18273  0  0  -0.499095  0  2.173298  0  0  -0.283548  -0.465063  0  2.189002  0
O  O65  1  0.00861698  0.54937092  0.61961182  1  0  -0.527502  0  1.971815  0  0  -0.478967  0  2.182806  0  0  -0.499137  0  2.173372  0  0  -0.283589  -0.465107  0  2.18908  0
O  O66  1  0.40413965  0.33106093  0.43631750  1  0  -0.641489  0  2.042489  0  0  -0.582956  0  2.306102  0  0  -0.608205  0  2.292465  0  0  -0.311139  -0.56534  0  2.314963  0
O  O67  1  0.09586211  0.83105900  0.06368066  1  0  -0.641518  0  2.042348  0  0  -0.582994  0  2.305984  0  0  -0.608244  0  2.292345  0  0  -0.311146  -0.565377  0  2.314847  0
O  O68  1  0.59585664  0.66894314  0.56367821  1  0  -0.64135  0  2.042453  0  0  -0.582896  0  2.306102  0  0  -0.608147  0  2.292469  0  0  -0.311099  -0.565272  0  2.314946  0
O  O69  1  0.90414151  0.16893791  0.93631697  1  0  -0.641559  0  2.042479  0  0  -0.583008  0  2.306121  0  0  -0.608256  0  2.292481  0  0  -0.311148  -0.56539  0  2.314979  0
O  O70  1  0.86952649  0.07164558  0.67755055  1  0  -0.642621  0  2.085927  0  0  -0.566583  0  2.34085  0  0  -0.594662  0  2.32765  0  0  -0.307012  -0.546912  0  2.349376  0
O  O71  1  0.63047797  0.57164430  0.82244988  1  0  -0.6426  0  2.086064  0  0  -0.566529  0  2.341007  0  0  -0.594581  0  2.327776  0  0  -0.306966  -0.546858  0  2.349531  0
O  O72  1  0.13047565  0.92835760  0.32245198  1  0  -0.642567  0  2.086022  0  0  -0.56652  0  2.34093  0  0  -0.59457  0  2.327687  0  0  -0.306959  -0.54685  0  2.349452  0
O  O73  1  0.36952125  0.42835440  0.17754882  1  0  -0.64257  0  2.086011  0  0  -0.566517  0  2.340949  0  0  -0.594603  0  2.327735  0  0  -0.306957  -0.546844  0  2.349472  0
O  O74  1  0.88833227  0.90640897  0.56824501  1  0  -0.563273  0  1.939888  0  0  -0.512502  0  2.151808  0  0  -0.534888  0  2.145109  0  0  -0.291478  -0.496868  0  2.155954  0
O  O75  1  0.61166918  0.40640778  0.93175475  1  0  -0.563314  0  1.939754  0  0  -0.512538  0  2.15172  0  0  -0.534923  0  2.145018  0  0  -0.291503  -0.496906  0  2.155872  0
O  O76  1  0.11166547  0.09359421  0.43175603  1  0  -0.563242  0  1.939759  0  0  -0.512506  0  2.151678  0  0  -0.534892  0  2.14498  0  0  -0.291519  -0.496869  0  2.155819  0
O  O77  1  0.38833150  0.59359002  0.06824671  1  0  -0.563241  0  1.93993  0  0  -0.512444  0  2.151868  0  0  -0.534827  0  2.145167  0  0  -0.291468  -0.496813  0  2.156024  0
O  O78  1  0.12720920  0.98314039  0.85709591  1  0  -0.861633  0  2.003176  0  0  -0.788872  0  2.213009  0  0  -0.814327  0  2.178936  0  0  -0.557729  -0.77079  0  2.236545  0
O  O79  1  0.37279103  0.48314258  0.64290253  1  0  -0.861582  0  2.003167  0  0  -0.788856  0  2.213007  0  0  -0.81431  0  2.178939  0  0  -0.557731  -0.770773  0  2.236543  0
O  O80  1  0.87279149  0.01685652  0.14290130  1  0  -0.861642  0  2.003192  0  0  -0.78893  0  2.213057  0  0  -0.814386  0  2.178985  0  0  -0.557726  -0.770846  0  2.236591  0
O  O81  1  0.62720818  0.51685791  0.35709617  1  0  -0.86163  0  2.003196  0  0  -0.788946  0  2.212931  0  0  -0.814401  0  2.178851  0  0  -0.557756  -0.770864  0  2.236467  0
O  O82  1  0.97818157  0.23175923  0.23146515  1  0  -0.797681  0  1.905431  0  0  -0.731144  0  2.121546  0  0  -0.753754  0  2.085298  0  0  -0.565234  -0.715106  0  2.146678  0
O  O83  1  0.52181564  0.73176085  0.26853267  1  0  -0.797652  0  1.905514  0  0  -0.73115  0  2.121567  0  0  -0.753749  0  2.085319  0  0  -0.565242  -0.71511  0  2.146702  0
O  O84  1  0.02181765  0.76823947  0.76853184  1  0  -0.797717  0  1.905453  0  0  -0.731233  0  2.121533  0  0  -0.753828  0  2.08528  0  0  -0.565306  -0.715193  0  2.146671  0
O  O85  1  0.47818651  0.26824053  0.73146646  1  0  -0.797657  0  1.905466  0  0  -0.731165  0  2.121575  0  0  -0.753769  0  2.085333  0  0  -0.565264  -0.715124  0  2.146711  0
