# generated using pymatgen
data_SrH18(C11O3)2
_symmetry_space_group_name_H-M   'P 1'
_cell_length_a   7.91730036
_cell_length_b   11.26312047
_cell_length_c   11.96816902
_cell_angle_alpha   118.06349496
_cell_angle_beta   94.31488108
_cell_angle_gamma   89.99772216
_symmetry_Int_Tables_number   1
_chemical_formula_structural   SrH18(C11O3)2
_chemical_formula_sum   'Sr2 H36 C44 O12'
_cell_volume   938.33666096
_cell_formula_units_Z   2
loop_
 _symmetry_equiv_pos_site_id
 _symmetry_equiv_pos_as_xyz
  1  'x, y, z'
loop_
 _atom_site_type_symbol
 _atom_site_label
 _atom_site_symmetry_multiplicity
 _atom_site_fract_x
 _atom_site_fract_y
 _atom_site_fract_z
 _atom_site_occupancy
 _atom_site_hle17_bader_spin_density
 _atom_site_hle17_ddec_charge
 _atom_site_hle17_ddec_spin_density
 _atom_site_hle17_ddec_sum_bond_order
 _atom_site_hle17_magmom
 _atom_site_hse06_10hf_bader_spin_density
 _atom_site_hse06_10hf_ddec_charge
 _atom_site_hse06_10hf_ddec_spin_density
 _atom_site_hse06_10hf_ddec_sum_bond_order
 _atom_site_hse06_10hf_magmom
 _atom_site_hse06_bader_spin_density
 _atom_site_hse06_ddec_charge
 _atom_site_hse06_ddec_spin_density
 _atom_site_hse06_ddec_sum_bond_order
 _atom_site_hse06_magmom
 _atom_site_pbe_bader_spin_density
 _atom_site_pbe_cm5_charge
 _atom_site_pbe_ddec_charge
 _atom_site_pbe_ddec_spin_density
 _atom_site_pbe_ddec_sum_bond_order
 _atom_site_pbe_magmom
Sr  Sr0  1  0.25005104  0.44356264  0.00004261  1  0  1.63256  0  1.101669  0  0  1.492531  0  1.472677  0  0  1.531216  0  1.426722  0  0  0.976183  1.463726  0  1.505871  0
Sr  Sr1  1  0.74994703  0.55643844  0.99995746  1  0  1.632543  0  1.10167  0  0  1.492516  0  1.47268  0  0  1.531187  0  1.426738  0  0  0.976178  1.463704  0  1.50588  0
H  H2  1  0.53602959  0.40164929  0.17050329  1  0  0.439246  0  0.86029  0  0  0.404453  0  0.929799  0  0  0.416418  0  0.912326  0  0  0.296683  0.395962  0  0.942186  0
H  H3  1  0.96382955  0.23129925  0.82974781  1  0  0.440214  0  0.859085  0  0  0.405071  0  0.929125  0  0  0.417037  0  0.911648  0  0  0.297065  0.396571  0  0.941526  0
H  H4  1  0.46396712  0.59834977  0.82949582  1  0  0.43925  0  0.860303  0  0  0.404474  0  0.929791  0  0  0.416441  0  0.912314  0  0  0.296689  0.395981  0  0.942182  0
H  H5  1  0.03616605  0.76870283  0.17025341  1  0  0.440217  0  0.859094  0  0  0.405081  0  0.929124  0  0  0.417047  0  0.911643  0  0  0.297062  0.396581  0  0.941523  0
H  H6  1  0.39199393  0.32314162  0.19982545  1  0  0.416068  0  0.852163  0  0  0.394045  0  0.915424  0  0  0.401301  0  0.904969  0  0  0.310616  0.388762  0  0.923091  0
H  H7  1  0.10784809  0.12343085  0.80019848  1  0  0.416768  0  0.852005  0  0  0.395012  0  0.914126  0  0  0.402252  0  0.903689  0  0  0.310951  0.389781  0  0.921701  0
H  H8  1  0.60800283  0.67685845  0.80017328  1  0  0.416144  0  0.851988  0  0  0.394067  0  0.915385  0  0  0.401323  0  0.90493  0  0  0.31062  0.388785  0  0.923051  0
H  H9  1  0.89214751  0.87657123  0.19980191  1  0  0.416735  0  0.852031  0  0  0.394981  0  0.914163  0  0  0.402219  0  0.903728  0  0  0.310939  0.389749  0  0.921737  0
H  H10  1  0.94664397  0.79784659  0.95769007  1  0  0.087989  0  0.980909  0  0  0.096685  0  1.047938  0  0  0.100548  0  1.04503  0  0  0.105485  0.093864  0  1.050033  0
H  H11  1  0.55309572  0.84018464  0.04207652  1  0  0.087766  0  0.980733  0  0  0.096403  0  1.047752  0  0  0.100357  0  1.044749  0  0  0.105274  0.093446  0  1.050074  0
H  H12  1  0.05334777  0.20215448  0.04230885  1  0  0.087939  0  0.980927  0  0  0.096643  0  1.047952  0  0  0.100505  0  1.045044  0  0  0.105479  0.093836  0  1.050033  0
H  H13  1  0.44690733  0.15981443  0.95792289  1  0  0.087802  0  0.980753  0  0  0.096414  0  1.047794  0  0  0.100366  0  1.044792  0  0  0.105285  0.093453  0  1.050117  0
H  H14  1  0.85545935  0.96339291  0.88289490  1  0  0.090012  0  0.952891  0  0  0.101651  0  1.011702  0  0  0.103925  0  1.012187  0  0  0.09774  0.100064  0  1.011377  0
H  H15  1  0.64428768  0.08053692  0.11680223  1  0  0.089585  0  0.95266  0  0  0.101293  0  1.011496  0  0  0.103566  0  1.011948  0  0  0.09748  0.099598  0  1.011379  0
H  H16  1  0.14453974  0.03660313  0.11709964  1  0  0.090034  0  0.952849  0  0  0.101655  0  1.011686  0  0  0.10393  0  1.01217  0  0  0.097757  0.10006  0  1.011371  0
H  H17  1  0.35572307  0.91946417  0.88320096  1  0  0.089615  0  0.952603  0  0  0.101276  0  1.011515  0  0  0.103545  0  1.011969  0  0  0.097471  0.099586  0  1.01138  0
H  H18  1  0.92758734  0.92853276  0.67110728  1  0  0.078142  0  1.003252  0  0  0.087188  0  1.072168  0  0  0.089322  0  1.072221  0  0  0.093923  0.085629  0  1.072298  0
H  H19  1  0.57249632  0.25740678  0.32875075  1  0  0.078011  0  1.003192  0  0  0.087072  0  1.072148  0  0  0.089192  0  1.072195  0  0  0.094043  0.08552  0  1.072262  0
H  H20  1  0.07241458  0.07146933  0.32889174  1  0  0.078133  0  1.00339  0  0  0.087175  0  1.072306  0  0  0.089305  0  1.072379  0  0  0.093927  0.085616  0  1.072434  0
H  H21  1  0.42750551  0.74259330  0.67125156  1  0  0.077964  0  1.003258  0  0  0.087087  0  1.072151  0  0  0.08921  0  1.072192  0  0  0.09405  0.085535  0  1.072265  0
H  H22  1  0.05364625  0.79585516  0.47254974  1  0  0.090443  0  0.963078  0  0  0.103872  0  1.022436  0  0  0.106265  0  1.021828  0  0  0.10095  0.102089  0  1.023092  0
H  H23  1  0.44653185  0.32332820  0.52742192  1  0  0.090511  0  0.963039  0  0  0.103699  0  1.022709  0  0  0.106099  0  1.022082  0  0  0.101009  0.101936  0  1.023359  0
H  H24  1  0.94635558  0.20414492  0.52744923  1  0  0.090469  0  0.963109  0  0  0.103882  0  1.02248  0  0  0.106275  0  1.021872  0  0  0.100974  0.102099  0  1.023137  0
H  H25  1  0.55346487  0.67667086  0.47257719  1  0  0.090487  0  0.963016  0  0  0.103645  0  1.022719  0  0  0.106045  0  1.022093  0  0  0.101001  0.101879  0  1.023377  0
H  H26  1  0.21771070  0.59988399  0.33412149  1  0  0.09732  0  0.955704  0  0  0.105997  0  1.01994  0  0  0.109822  0  1.017471  0  0  0.108817  0.103164  0  1.021991  0
H  H27  1  0.28234205  0.26575667  0.66577079  1  0  0.097226  0  0.955599  0  0  0.105753  0  1.0201  0  0  0.109607  0  1.01761  0  0  0.1088  0.102909  0  1.022117  0
H  H28  1  0.78228844  0.40011306  0.66587601  1  0  0.09728  0  0.955783  0  0  0.10598  0  1.019987  0  0  0.109806  0  1.017516  0  0  0.108822  0.103148  0  1.022038  0
H  H29  1  0.71766616  0.73424441  0.33422976  1  0  0.097281  0  0.955495  0  0  0.105779  0  1.020042  0  0  0.109637  0  1.017548  0  0  0.108828  0.102934  0  1.022064  0
H  H30  1  0.31194698  0.43556143  0.40879721  1  0  0.075933  0  0.96588  0  0  0.087761  0  1.029703  0  0  0.090269  0  1.028935  0  0  0.095111  0.085743  0  1.030761  0
H  H31  1  0.18803413  0.02681548  0.59109153  1  0  0.076297  0  0.96408  0  0  0.087935  0  1.028257  0  0  0.090543  0  1.027328  0  0  0.095423  0.085951  0  1.02921  0
H  H32  1  0.68805097  0.56443663  0.59120485  1  0  0.075946  0  0.965921  0  0  0.087761  0  1.029753  0  0  0.090267  0  1.028985  0  0  0.095122  0.085744  0  1.03081  0
H  H33  1  0.81196400  0.97318661  0.40891149  1  0  0.076316  0  0.964032  0  0  0.087938  0  1.028239  0  0  0.090546  0  1.027308  0  0  0.095427  0.085954  0  1.02919  0
H  H34  1  0.24803116  0.46774771  0.61899634  1  0  0.097233  0  0.987456  0  0  0.105511  0  1.053327  0  0  0.108304  0  1.052561  0  0  0.100802  0.103467  0  1.054024  0
H  H35  1  0.25163774  0.84885802  0.38083033  1  0  0.09794  0  0.988261  0  0  0.106237  0  1.053862  0  0  0.109018  0  1.053132  0  0  0.101184  0.104254  0  1.054504  0
H  H36  1  0.75196829  0.53225538  0.38100719  1  0  0.097259  0  0.987477  0  0  0.105539  0  1.053337  0  0  0.108332  0  1.052573  0  0  0.100819  0.103494  0  1.054034  0
H  H37  1  0.74835405  0.15114405  0.61917072  1  0  0.097909  0  0.988289  0  0  0.106216  0  1.053869  0  0  0.108998  0  1.053137  0  0  0.101168  0.104231  0  1.054514  0
C  C38  1  0.12561443  0.58138500  0.84421656  1  0  0.684303  0  3.897543  0  0  0.633085  0  4.190031  0  0  0.667297  0  4.181289  0  0  0.221076  0.609585  0  4.195477  0
C  C39  1  0.37437604  0.73729108  0.15575729  1  0  0.685166  0  3.895681  0  0  0.634209  0  4.188004  0  0  0.668385  0  4.179222  0  0  0.221204  0.6108  0  4.193403  0
C  C40  1  0.87438476  0.41861305  0.15578055  1  0  0.68417  0  3.897775  0  0  0.632964  0  4.190237  0  0  0.667182  0  4.181486  0  0  0.221053  0.609465  0  4.195678  0
C  C41  1  0.62562075  0.26270999  0.84423853  1  0  0.685105  0  3.895647  0  0  0.634163  0  4.187904  0  0  0.668357  0  4.179092  0  0  0.221238  0.610754  0  4.193301  0
C  C42  1  0.07451612  0.67524261  0.79247131  1  0  -0.10419  0  3.71822  0  0  -0.084737  0  3.949623  0  0  -0.091749  0  3.971052  0  0  -0.010787  -0.079831  0  3.934761  0
C  C43  1  0.42522881  0.88288789  0.20732427  1  0  -0.104081  0  3.717768  0  0  -0.085321  0  3.949804  0  0  -0.092206  0  3.971092  0  0  -0.011694  -0.080801  0  3.935394  0
C  C44  1  0.92547938  0.32475746  0.20752986  1  0  -0.104212  0  3.718236  0  0  -0.084755  0  3.949656  0  0  -0.09177  0  3.971088  0  0  -0.01082  -0.079849  0  3.934794  0
C  C45  1  0.57476800  0.11711318  0.79267407  1  0  -0.104215  0  3.717857  0  0  -0.085382  0  3.949814  0  0  -0.092273  0  3.9711  0  0  -0.011701  -0.080863  0  3.935405  0
C  C46  1  0.98002885  0.78450296  0.86575945  1  0  -0.089752  0  3.768943  0  0  -0.111616  0  4.015408  0  0  -0.111739  0  4.035174  0  0  -0.087696  -0.110929  0  4.001455  0
C  C47  1  0.51966183  0.91881235  0.13395350  1  0  -0.089179  0  3.768297  0  0  -0.110782  0  4.014745  0  0  -0.110994  0  4.034409  0  0  -0.087287  -0.110285  0  4.00127  0
C  C48  1  0.01996651  0.21549409  0.13424037  1  0  -0.089653  0  3.768854  0  0  -0.111501  0  4.015313  0  0  -0.111625  0  4.035081  0  0  -0.087662  -0.110826  0  4.001349  0
C  C49  1  0.48033756  0.08118973  0.86604707  1  0  -0.089263  0  3.768302  0  0  -0.110867  0  4.014731  0  0  -0.111077  0  4.034392  0  0  -0.087352  -0.110368  0  4.001258  0
C  C50  1  0.92940957  0.87802268  0.82370699  1  0  -0.084586  0  3.804953  0  0  -0.096673  0  4.058528  0  0  -0.100035  0  4.080671  0  0  -0.100333  -0.094421  0  4.043284  0
C  C51  1  0.57028936  0.05435974  0.17598518  1  0  -0.085115  0  3.803865  0  0  -0.097278  0  4.057501  0  0  -0.100611  0  4.079616  0  0  -0.100216  -0.095009  0  4.042431  0
C  C52  1  0.07058694  0.12197235  0.17628782  1  0  -0.08465  0  3.804969  0  0  -0.096743  0  4.058561  0  0  -0.100104  0  4.0807  0  0  -0.100375  -0.094484  0  4.043323  0
C  C53  1  0.42971115  0.94563933  0.82401411  1  0  -0.08501  0  3.803714  0  0  -0.097148  0  4.057352  0  0  -0.100479  0  4.079466  0  0  -0.10016  -0.094875  0  4.042281  0
C  C54  1  0.97035932  0.85940403  0.70658851  1  0  -0.11752  0  3.766704  0  0  -0.140086  0  4.017054  0  0  -0.140805  0  4.037877  0  0  -0.09224  -0.139588  0  4.003264  0
C  C55  1  0.52957382  0.15281473  0.29320890  1  0  -0.11694  0  3.765877  0  0  -0.139564  0  4.016152  0  0  -0.140271  0  4.036978  0  0  -0.092117  -0.138854  0  4.002018  0
C  C56  1  0.02963978  0.14059201  0.29340938  1  0  -0.117461  0  3.766724  0  0  -0.14001  0  4.01702  0  0  -0.140733  0  4.037838  0  0  -0.092233  -0.139511  0  4.003223  0
C  C57  1  0.47043181  0.84718535  0.70679108  1  0  -0.116891  0  3.765912  0  0  -0.139584  0  4.016145  0  0  -0.140293  0  4.03697  0  0  -0.092111  -0.138873  0  4.002009  0
C  C58  1  0.06301997  0.74738326  0.62740393  1  0  0.051713  0  3.794087  0  0  0.071188  0  4.016123  0  0  0.069828  0  4.04149  0  0  -0.007962  0.071926  0  3.999012  0
C  C59  1  0.43699674  0.12000913  0.37245317  1  0  0.052213  0  3.793738  0  0  0.071957  0  4.015099  0  0  0.070609  0  4.040465  0  0  -0.00777  0.072797  0  3.997862  0
C  C60  1  0.93697928  0.25261580  0.37259530  1  0  0.051623  0  3.794225  0  0  0.071132  0  4.016243  0  0  0.069772  0  4.041607  0  0  -0.007969  0.07187  0  3.999132  0
C  C61  1  0.56301123  0.87998692  0.62754431  1  0  0.051937  0  3.794166  0  0  0.071775  0  4.015436  0  0  0.070426  0  4.040807  0  0  -0.007853  0.072613  0  3.998197  0
C  C62  1  0.10042760  0.72529965  0.50506458  1  0  -0.105266  0  3.7206  0  0  -0.123498  0  3.965097  0  0  -0.125942  0  3.986702  0  0  -0.0864  -0.121797  0  3.950647  0
C  C63  1  0.39977273  0.22025375  0.49486485  1  0  -0.10582  0  3.720375  0  0  -0.123998  0  3.964899  0  0  -0.126452  0  3.986515  0  0  -0.086453  -0.12221  0  3.950221  0
C  C64  1  0.89957291  0.27469942  0.49493304  1  0  -0.105298  0  3.720809  0  0  -0.123526  0  3.965305  0  0  -0.125968  0  3.986908  0  0  -0.08642  -0.121827  0  3.95086  0
C  C65  1  0.60022906  0.77974532  0.50513701  1  0  -0.105697  0  3.72045  0  0  -0.123864  0  3.964942  0  0  -0.126314  0  3.986552  0  0  -0.086394  -0.122078  0  3.950268  0
C  C66  1  0.18993782  0.61611920  0.42801164  1  0  -0.064819  0  3.759368  0  0  -0.081544  0  4.015508  0  0  -0.083252  0  4.035359  0  0  -0.087323  -0.080369  0  4.002011  0
C  C67  1  0.31023947  0.18810348  0.57192120  1  0  -0.064112  0  3.759523  0  0  -0.080675  0  4.015229  0  0  -0.082406  0  4.035147  0  0  -0.087059  -0.079326  0  4.00146  0
C  C68  1  0.81006273  0.38388088  0.57198727  1  0  -0.064733  0  3.759392  0  0  -0.08148  0  4.015538  0  0  -0.083188  0  4.035388  0  0  -0.087329  -0.080304  0  4.002036  0
C  C69  1  0.68976870  0.81189661  0.42808141  1  0  -0.064108  0  3.759281  0  0  -0.080659  0  4.015007  0  0  -0.082389  0  4.034923  0  0  -0.087056  -0.079311  0  4.001236  0
C  C70  1  0.24372314  0.52339567  0.47054964  1  0  -0.064175  0  3.787798  0  0  -0.079306  0  4.043623  0  0  -0.080847  0  4.065137  0  0  -0.091057  -0.078166  0  4.029017  0
C  C71  1  0.25633024  0.05286037  0.52935124  1  0  -0.064357  0  3.786079  0  0  -0.079312  0  4.041871  0  0  -0.080904  0  4.063352  0  0  -0.091404  -0.078016  0  4.027136  0
C  C72  1  0.75627362  0.47660440  0.52944908  1  0  -0.064209  0  3.787855  0  0  -0.079315  0  4.043662  0  0  -0.080853  0  4.065172  0  0  -0.09107  -0.078174  0  4.029056  0
C  C73  1  0.74367546  0.94714072  0.47065421  1  0  -0.064382  0  3.786097  0  0  -0.079325  0  4.041889  0  0  -0.080919  0  4.063373  0  0  -0.091442  -0.078028  0  4.027152  0
C  C74  1  0.20870440  0.54098953  0.58832304  1  0  -0.125574  0  3.750106  0  0  -0.146541  0  4.002507  0  0  -0.149362  0  4.023469  0  0  -0.094816  -0.144392  0  3.987911  0
C  C75  1  0.29122094  0.95271683  0.41153458  1  0  -0.126819  0  3.750535  0  0  -0.147886  0  4.002993  0  0  -0.150719  0  4.024003  0  0  -0.095175  -0.14589  0  3.988664  0
C  C76  1  0.79129495  0.45901154  0.41167792  1  0  -0.125646  0  3.750196  0  0  -0.146587  0  4.002584  0  0  -0.149409  0  4.023548  0  0  -0.094857  -0.144438  0  3.987987  0
C  C77  1  0.70878480  0.04728527  0.58846964  1  0  -0.12682  0  3.750529  0  0  -0.147866  0  4.00298  0  0  -0.150698  0  4.023988  0  0  -0.095149  -0.145867  0  3.98865  0
C  C78  1  0.11870039  0.65364035  0.67083475  1  0  0.043647  0  3.750923  0  0  0.055132  0  3.969449  0  0  0.055636  0  3.993755  0  0  -0.002638  0.054921  0  3.952597  0
C  C79  1  0.38117234  0.98286955  0.32899346  1  0  0.043303  0  3.750524  0  0  0.055005  0  3.969022  0  0  0.05544  0  3.993337  0  0  -0.00247  0.054785  0  3.952501  0
C  C80  1  0.88129759  0.34635871  0.32916526  1  0  0.043717  0  3.75094  0  0  0.055143  0  3.969531  0  0  0.055647  0  3.993837  0  0  -0.002613  0.054932  0  3.952677  0
C  C81  1  0.61883072  0.01712952  0.67100846  1  0  0.043499  0  3.750538  0  0  0.055099  0  3.969078  0  0  0.055532  0  3.993397  0  0  -0.002438  0.05488  0  3.952555  0
O  O82  1  0.27598249  0.53860631  0.83581530  1  0  -0.684692  0  1.990362  0  0  -0.619287  0  2.216022  0  0  -0.645393  0  2.20546  0  0  -0.335803  -0.600846  0  2.223112  0
O  O83  1  0.22413218  0.70283744  0.16431817  1  0  -0.685164  0  1.989806  0  0  -0.619499  0  2.215226  0  0  -0.645586  0  2.204652  0  0  -0.335901  -0.601042  0  2.222268  0
O  O84  1  0.72401929  0.46139276  0.16418489  1  0  -0.684637  0  1.990418  0  0  -0.619226  0  2.216052  0  0  -0.645331  0  2.20549  0  0  -0.335791  -0.600784  0  2.22314  0
O  O85  1  0.77586715  0.29716364  0.83568029  1  0  -0.685099  0  1.98978  0  0  -0.619447  0  2.215194  0  0  -0.645538  0  2.204611  0  0  -0.335933  -0.600988  0  2.222237  0
O  O86  1  0.01676630  0.54783410  0.89846635  1  0  -0.749898  0  2.011362  0  0  -0.686089  0  2.26283  0  0  -0.713712  0  2.253071  0  0  -0.405994  -0.66643  0  2.269172  0
O  O87  1  0.48329860  0.64958441  0.10154362  1  0  -0.750168  0  2.01053  0  0  -0.686361  0  2.26182  0  0  -0.714043  0  2.25218  0  0  -0.405486  -0.666662  0  2.268019  0
O  O88  1  0.98323305  0.45216698  0.10153629  1  0  -0.749831  0  2.011444  0  0  -0.686042  0  2.262927  0  0  -0.713668  0  2.253164  0  0  -0.405987  -0.666385  0  2.26927  0
O  O89  1  0.51670103  0.35042271  0.89845585  1  0  -0.750128  0  2.010452  0  0  -0.686336  0  2.261737  0  0  -0.714024  0  2.252083  0  0  -0.405492  -0.666637  0  2.267934  0
O  O90  1  0.41116352  0.37808664  0.15887455  1  0  -0.877858  0  1.768625  0  0  -0.823478  0  1.947426  0  0  -0.841751  0  1.917153  0  0  -0.616564  -0.810332  0  1.969022  0
O  O91  1  0.08867115  0.21932156  0.84148976  1  0  -0.879522  0  1.767963  0  0  -0.825217  0  1.945981  0  0  -0.843477  0  1.915717  0  0  -0.61715  -0.812055  0  1.967513  0
O  O92  1  0.58883324  0.62191343  0.84112417  1  0  -0.877946  0  1.76847  0  0  -0.823531  0  1.947384  0  0  -0.841804  0  1.917109  0  0  -0.616589  -0.810386  0  1.968983  0
O  O93  1  0.91132441  0.78067951  0.15851269  1  0  -0.879486  0  1.767996  0  0  -0.825186  0  1.946019  0  0  -0.843444  0  1.915759  0  0  -0.617137  -0.812025  0  1.967547  0
