# generated using pymatgen
data_K2H72PdC48S4(NO3)4
_symmetry_space_group_name_H-M   'P 1'
_cell_length_a   10.76799729
_cell_length_b   11.34228460
_cell_length_c   12.77863844
_cell_angle_alpha   101.57772440
_cell_angle_beta   110.66583565
_cell_angle_gamma   98.90425478
_symmetry_Int_Tables_number   1
_chemical_formula_structural   K2H72PdC48S4(NO3)4
_chemical_formula_sum   'K2 H72 Pd1 C48 S4 N4 O12'
_cell_volume   1386.55532375
_cell_formula_units_Z   1
loop_
 _symmetry_equiv_pos_site_id
 _symmetry_equiv_pos_as_xyz
  1  'x, y, z'
loop_
 _atom_site_type_symbol
 _atom_site_label
 _atom_site_symmetry_multiplicity
 _atom_site_fract_x
 _atom_site_fract_y
 _atom_site_fract_z
 _atom_site_occupancy
 _atom_site_hle17_bader_spin_density
 _atom_site_hle17_ddec_charge
 _atom_site_hle17_ddec_spin_density
 _atom_site_hle17_ddec_sum_bond_order
 _atom_site_hle17_magmom
 _atom_site_hse06_10hf_bader_spin_density
 _atom_site_hse06_10hf_ddec_charge
 _atom_site_hse06_10hf_ddec_spin_density
 _atom_site_hse06_10hf_ddec_sum_bond_order
 _atom_site_hse06_10hf_magmom
 _atom_site_hse06_bader_spin_density
 _atom_site_hse06_ddec_charge
 _atom_site_hse06_ddec_spin_density
 _atom_site_hse06_ddec_sum_bond_order
 _atom_site_hse06_magmom
 _atom_site_pbe_bader_spin_density
 _atom_site_pbe_cm5_charge
 _atom_site_pbe_ddec_charge
 _atom_site_pbe_ddec_spin_density
 _atom_site_pbe_ddec_sum_bond_order
 _atom_site_pbe_magmom
K  K0  1  0.53319704  0.28732884  0.75050072  1  0  0.893832  0  0.543513  0  0  0.811362  0  0.766384  0  0  0.829374  0  0.741888  0  0  0.867947  0.798184  0  0.783663  0
K  K1  1  0.46680445  0.71267379  0.24949559  1  0  0.893854  0  0.543482  0  0  0.811398  0  0.766339  0  0  0.829412  0  0.74184  0  0  0.86796  0.798225  0  0.783617  0
H  H2  1  0.26000180  0.11783450  0.38659483  1  0  0.028336  0  0.931844  0  0  0.036799  0  1.000533  0  0  0.037495  0  0.999872  0  0  0.095777  0.036353  0  1.001069  0
H  H3  1  0.73999298  0.88216538  0.61340368  1  0  0.028456  0  0.931802  0  0  0.036906  0  1.000477  0  0  0.0376  0  0.99982  0  0  0.095844  0.036456  0  1.001016  0
H  H4  1  0.05103051  0.18599002  0.31868730  1  0  0.077198  0  0.965214  0  0  0.097324  0  1.026909  0  0  0.097951  0  1.02762  0  0  0.083189  0.09675  0  1.026645  0
H  H5  1  0.94896052  0.81400709  0.68131665  1  0  0.077156  0  0.965241  0  0  0.097304  0  1.026872  0  0  0.097937  0  1.027579  0  0  0.083139  0.096728  0  1.026607  0
H  H6  1  0.02622667  0.07253931  0.38913397  1  0  0.069742  0  0.954412  0  0  0.085304  0  1.020095  0  0  0.086376  0  1.020148  0  0  0.084559  0.084544  0  1.020176  0
H  H7  1  0.97377306  0.92746054  0.61087463  1  0  0.069845  0  0.954333  0  0  0.085317  0  1.020081  0  0  0.086388  0  1.02014  0  0  0.084536  0.084552  0  1.020166  0
H  H8  1  0.06348137  0.23759783  0.56814462  1  0  0.061564  0  0.934905  0  0  0.079604  0  0.997334  0  0  0.081096  0  0.996406  0  0  0.087457  0.078515  0  0.99802  0
H  H9  1  0.93652185  0.76240386  0.43186299  1  0  0.061516  0  0.934889  0  0  0.079566  0  0.997313  0  0  0.081057  0  0.99638  0  0  0.087444  0.078469  0  0.998008  0
H  H10  1  0.93069791  0.25245344  0.44509034  1  0  0.046754  0  0.965705  0  0  0.064604  0  1.032988  0  0  0.065224  0  1.033114  0  0  0.080174  0.063859  0  1.033405  0
H  H11  1  0.06930255  0.74754548  0.55491987  1  0  0.046662  0  0.965717  0  0  0.064504  0  1.032996  0  0  0.065118  0  1.033124  0  0  0.080167  0.063763  0  1.033403  0
H  H12  1  0.09231980  0.41991182  0.42526404  1  0  0.051637  0  0.936817  0  0  0.070733  0  1.001302  0  0  0.071594  0  1.001232  0  0  0.0826  0.070113  0  1.001233  0
H  H13  1  0.90767467  0.58008341  0.57473591  1  0  0.051703  0  0.936857  0  0  0.070809  0  1.001335  0  0  0.071669  0  1.001267  0  0  0.082626  0.07019  0  1.00126  0
H  H14  1  0.09404576  0.45910104  0.56693677  1  0  0.061593  0  0.951588  0  0  0.081915  0  1.012115  0  0  0.082069  0  1.01371  0  0  0.088491  0.082041  0  1.01044  0
H  H15  1  0.90595251  0.54090068  0.43306468  1  0  0.061641  0  0.951571  0  0  0.081966  0  1.012101  0  0  0.08212  0  1.013695  0  0  0.088484  0.082074  0  1.010451  0
H  H16  1  0.33593279  0.49752220  0.57866112  1  0  0.079796  0  0.946556  0  0  0.095991  0  1.010101  0  0  0.096678  0  1.010259  0  0  0.094787  0.095541  0  1.009979  0
H  H17  1  0.66406397  0.50247767  0.42133720  1  0  0.07976  0  0.946593  0  0  0.095934  0  1.010194  0  0  0.09662  0  1.010353  0  0  0.094748  0.095482  0  1.010077  0
H  H18  1  0.30164211  0.38093788  0.64365988  1  0  0.078534  0  0.948396  0  0  0.092111  0  1.017902  0  0  0.092861  0  1.0178  0  0  0.096969  0.091501  0  1.018083  0
H  H19  1  0.69835814  0.61906382  0.35634059  1  0  0.078498  0  0.948419  0  0  0.092108  0  1.017891  0  0  0.092858  0  1.017789  0  0  0.096968  0.091495  0  1.018078  0
H  H20  1  0.29095193  0.33592673  0.39481141  1  0  0.033362  0  0.919928  0  0  0.042974  0  0.986618  0  0  0.043389  0  0.986402  0  0  0.096511  0.042603  0  0.986965  0
H  H21  1  0.70904384  0.66407315  0.60518818  1  0  0.0333  0  0.919976  0  0  0.042928  0  0.986657  0  0  0.043343  0  0.986439  0  0  0.096476  0.042551  0  0.987003  0
H  H22  1  0.49935864  0.29523665  0.38462208  1  0  0.058897  0  0.919905  0  0  0.072117  0  0.98686  0  0  0.071888  0  0.987062  0  0  0.101464  0.072238  0  0.986763  0
H  H23  1  0.50063885  0.70476228  0.61537708  1  0  0.058898  0  0.919939  0  0  0.072102  0  0.986897  0  0  0.071872  0  0.987099  0  0  0.101458  0.072225  0  0.986796  0
H  H24  1  0.49368287  0.16885474  0.44863891  1  0  0.059073  0  0.918503  0  0  0.071476  0  0.984779  0  0  0.073149  0  0.982255  0  0  0.103309  0.070104  0  0.986865  0
H  H25  1  0.50631488  0.83114512  0.55136127  1  0  0.059074  0  0.91853  0  0  0.071477  0  0.98479  0  0  0.07315  0  0.982266  0  0  0.103313  0.070106  0  0.986878  0
H  H26  1  0.73314325  0.28500358  0.48305043  1  0  0.03836  0  0.941988  0  0  0.053396  0  1.010443  0  0  0.053501  0  1.0101  0  0  0.09421  0.052711  0  1.011376  0
H  H27  1  0.26685450  0.71499628  0.51694819  1  0  0.038313  0  0.942072  0  0  0.053366  0  1.010484  0  0  0.053474  0  1.010137  0  0  0.094193  0.052679  0  1.011414  0
H  H28  1  0.70686017  0.41882878  0.56580327  1  0  0.055976  0  0.935378  0  0  0.07142  0  0.999648  0  0  0.071815  0  0.999281  0  0  0.106015  0.071094  0  0.999965  0
H  H29  1  0.29313560  0.58117110  0.43419632  1  0  0.056036  0  0.935328  0  0  0.071442  0  0.999615  0  0  0.071837  0  0.999248  0  0  0.106017  0.071117  0  0.999933  0
H  H30  1  0.88096485  0.42498663  0.72840334  1  0  0.049162  0  0.925812  0  0  0.06143  0  0.99605  0  0  0.06282  0  0.993624  0  0  0.100804  0.060278  0  0.997899  0
H  H31  1  0.11903216  0.57501416  0.27159679  1  0  0.049185  0  0.925777  0  0  0.061431  0  0.996044  0  0  0.062822  0  0.993617  0  0  0.100812  0.060277  0  0.997895  0
H  H32  1  0.92433701  0.28404372  0.67805761  1  0  0.048986  0  0.924722  0  0  0.064237  0  0.989644  0  0  0.064324  0  0.989645  0  0  0.098237  0.064095  0  0.989692  0
H  H33  1  0.07566099  0.71595707  0.32194124  1  0  0.04897  0  0.924781  0  0  0.064212  0  0.989715  0  0  0.064297  0  0.989718  0  0  0.098243  0.064069  0  0.989768  0
H  H34  1  0.84317462  0.19635224  0.81780429  1  0  0.055427  0  0.935983  0  0  0.066398  0  1.007374  0  0  0.067589  0  1.005665  0  0  0.097889  0.065429  0  1.008768  0
H  H35  1  0.15682386  0.80364669  0.18219516  1  0  0.055415  0  0.935996  0  0  0.06639  0  1.007394  0  0  0.067581  0  1.005685  0  0  0.09789  0.06542  0  1.008787  0
H  H36  1  0.99217511  0.32169131  0.88472853  1  0  0.055554  0  0.935665  0  0  0.07002  0  1.001629  0  0  0.06927  0  1.002927  0  0  0.098143  0.070432  0  1.000904  0
H  H37  1  0.00782337  0.67830762  0.11527092  1  0  0.055548  0  0.935612  0  0  0.070023  0  1.001587  0  0  0.069272  0  1.002883  0  0  0.098154  0.070433  0  1.000865  0
H  H38  1  0.95033751  0.39923251  0.05762870  1  0  0.039951  0  0.899901  0  0  0.052065  0  0.959979  0  0  0.05273  0  0.959353  0  0  0.100685  0.051493  0  0.960622  0
H  H39  1  0.04966024  0.60076735  0.94237070  1  0  0.039959  0  0.899847  0  0  0.052044  0  0.959956  0  0  0.05271  0  0.959332  0  0  0.100702  0.05147  0  0.960601  0
H  H40  1  0.65298366  0.42183901  0.99320775  1  0  0.077972  0  0.933865  0  0  0.094656  0  0.995689  0  0  0.095092  0  0.996577  0  0  0.097864  0.094449  0  0.994877  0
H  H41  1  0.34701457  0.57815899  0.00679146  1  0  0.077968  0  0.933903  0  0  0.09468  0  0.9957  0  0  0.095118  0  0.996585  0  0  0.097873  0.094469  0  0.994891  0
H  H42  1  0.79957480  0.54540690  0.04294373  1  0  0.064939  0  0.965484  0  0  0.078414  0  1.035694  0  0  0.078322  0  1.037167  0  0  0.086542  0.078423  0  1.034721  0
H  H43  1  0.20042368  0.45459203  0.95705415  1  0  0.064942  0  0.965491  0  0  0.078421  0  1.03569  0  0  0.078328  0  1.037164  0  0  0.08654  0.078425  0  1.034721  0
H  H44  1  0.72128143  0.51664303  0.20108704  1  0  0.077102  0  0.958786  0  0  0.093963  0  1.020684  0  0  0.094395  0  1.021548  0  0  0.093474  0.093612  0  1.020172  0
H  H45  1  0.27871731  0.48335683  0.79891265  1  0  0.07709  0  0.95879  0  0  0.093956  0  1.020681  0  0  0.094388  0  1.021543  0  0  0.093458  0.093603  0  1.020167  0
H  H46  1  0.88907755  0.49576271  0.23355171  1  0  0.04289  0  0.954107  0  0  0.06259  0  1.019814  0  0  0.062985  0  1.020441  0  0  0.079355  0.062157  0  1.019541  0
H  H47  1  0.11092145  0.50423808  0.76644744  1  0  0.042878  0  0.954115  0  0  0.062579  0  1.019826  0  0  0.062972  0  1.020454  0  0  0.079346  0.062145  0  1.019549  0
H  H48  1  0.75132702  0.32731515  0.27398082  1  0  0.049675  0  0.942832  0  0  0.069589  0  1.005479  0  0  0.070389  0  1.005372  0  0  0.080808  0.068847  0  1.005788  0
H  H49  1  0.24867370  0.67268469  0.72602024  1  0  0.049647  0  0.94287  0  0  0.069564  0  1.005531  0  0  0.070363  0  1.005425  0  0  0.080787  0.068819  0  1.00584  0
H  H50  1  0.62482742  0.28858510  0.13090985  1  0  0.065754  0  0.936407  0  0  0.082381  0  0.999827  0  0  0.082991  0  1.000309  0  0  0.087457  0.081645  0  1.000003  0
H  H51  1  0.37517304  0.71141382  0.86909097  1  0  0.065739  0  0.9364  0  0  0.082366  0  0.999831  0  0  0.082975  0  1.000314  0  0  0.087456  0.081628  0  1.000005  0
H  H52  1  0.78412967  0.14427952  0.14603511  1  0  0.064551  0  0.975583  0  0  0.076653  0  1.051393  0  0  0.077505  0  1.05236  0  0  0.078869  0.076089  0  1.050612  0
H  H53  1  0.21586907  0.85572033  0.85396458  1  0  0.064555  0  0.975591  0  0  0.076656  0  1.051405  0  0  0.077508  0  1.052373  0  0  0.078875  0.076095  0  1.050617  0
H  H54  1  0.92451332  0.27254137  0.19509734  1  0  0.067271  0  0.955021  0  0  0.08404  0  1.022513  0  0  0.084975  0  1.022699  0  0  0.082289  0.083339  0  1.022477  0
H  H55  1  0.07548740  0.72745848  0.80490294  1  0  0.067278  0  0.955044  0  0  0.084043  0  1.022533  0  0  0.08498  0  1.022722  0  0  0.082284  0.083343  0  1.022497  0
H  H56  1  0.86205422  0.17683305  0.99153513  1  0  0.016208  0  0.989982  0  0  0.011877  0  1.087313  0  0  0.015008  0  1.082219  0  0  0.075042  0.009612  0  1.090805  0
H  H57  1  0.13794477  0.82316774  0.00846403  1  0  0.016188  0  0.989956  0  0  0.01186  0  1.087282  0  0  0.01499  0  1.082186  0  0  0.075033  0.009592  0  1.090773  0
H  H58  1  0.68528833  0.01580931  0.84754691  1  0  0.047062  0  0.948548  0  0  0.053515  0  1.028253  0  0  0.055347  0  1.025625  0  0  0.088589  0.051995  0  1.030224  0
H  H59  1  0.31471140  0.98419054  0.15245542  1  0  0.047094  0  0.948601  0  0  0.053553  0  1.028279  0  0  0.055385  0  1.025652  0  0  0.088608  0.052035  0  1.03025  0
H  H60  1  0.65709600  0.00981475  0.97535345  1  0  0.047282  0  0.952188  0  0  0.059817  0  1.023657  0  0  0.059476  0  1.024501  0  0  0.09277  0.059817  0  1.023383  0
H  H61  1  0.34290273  0.99018511  0.02464937  1  0  0.047282  0  0.952235  0  0  0.05982  0  1.023697  0  0  0.05948  0  1.024541  0  0  0.092748  0.059821  0  1.02342  0
H  H62  1  0.41719766  0.03269153  0.87819774  1  0  0.050973  0  0.930991  0  0  0.063525  0  1.000705  0  0  0.063911  0  1.000143  0  0  0.098966  0.063043  0  1.001265  0
H  H63  1  0.58280108  0.96730833  0.12180273  1  0  0.050988  0  0.930929  0  0  0.06353  0  1.000649  0  0  0.063915  0  1.000088  0  0  0.098974  0.063046  0  1.001213  0
H  H64  1  0.45146702  0.89297780  0.81292772  1  0  0.051862  0  0.922466  0  0  0.06949  0  0.982859  0  0  0.069127  0  0.983413  0  0  0.100497  0.069636  0  0.98261  0
H  H65  1  0.54853198  0.10702299  0.18707299  1  0  0.051864  0  0.922439  0  0  0.069497  0  0.982819  0  0  0.069136  0  0.98337  0  0  0.100499  0.069645  0  0.982572  0
H  H66  1  0.23709666  0.02647392  0.70391565  1  0  0.052108  0  0.940313  0  0  0.061366  0  1.014448  0  0  0.061842  0  1.014431  0  0  0.096466  0.060952  0  1.014521  0
H  H67  1  0.76290329  0.97352314  0.29608390  1  0  0.052089  0  0.94029  0  0  0.06135  0  1.014431  0  0  0.061827  0  1.014416  0  0  0.096471  0.060937  0  1.01451  0
H  H68  1  0.26130775  0.88110640  0.64059685  1  0  0.035975  0  0.950775  0  0  0.051636  0  1.018151  0  0  0.051657  0  1.017841  0  0  0.094047  0.051346  0  1.018983  0
H  H69  1  0.73869370  0.11889252  0.35940348  1  0  0.035987  0  0.950752  0  0  0.05165  0  1.018123  0  0  0.051672  0  1.017814  0  0  0.09405  0.051363  0  1.018952  0
H  H70  1  0.31490349  0.97187194  0.49204146  1  0  0.05754  0  0.920479  0  0  0.068175  0  0.989682  0  0  0.070182  0  0.986773  0  0  0.102154  0.066609  0  0.991944  0
H  H71  1  0.68509671  0.02812605  0.50795834  1  0  0.057472  0  0.920529  0  0  0.06814  0  0.989734  0  0  0.070167  0  0.986805  0  0  0.102154  0.066577  0  0.991993  0
H  H72  1  0.14585894  0.96581843  0.48633471  1  0  0.049924  0  0.927218  0  0  0.068034  0  0.988119  0  0  0.068125  0  0.988095  0  0  0.099747  0.06783  0  0.988349  0
H  H73  1  0.85414079  0.03418142  0.51366606  1  0  0.0499  0  0.927216  0  0  0.068016  0  0.988145  0  0  0.068109  0  0.988125  0  0  0.099736  0.067811  0  0.988378  0
Pd  Pd74  1  0.00000273  0.00000275  0.99999987  1  0  0.156545  0  3.136221  0  0  0.156455  0  3.724869  0  0  0.167937  0  3.697082  0  0  0.537704  0.151184  0  3.742795  0
C  C75  1  0.23602850  0.17870780  0.45227987  1  0  0.134922  0  3.609551  0  0  0.111566  0  3.859101  0  0  0.11652  0  3.870752  0  0  -0.00696  0.108286  0  3.850886  0
C  C76  1  0.76396899  0.82129113  0.54772164  1  0  0.134779  0  3.609762  0  0  0.111419  0  3.859256  0  0  0.116373  0  3.870915  0  0  -0.00703  0.108145  0  3.851035  0
C  C77  1  0.08156965  0.16860085  0.40482206  1  0  -0.173034  0  3.672412  0  0  -0.216054  0  3.922186  0  0  -0.218141  0  3.936305  0  0  -0.174368  -0.214331  0  3.912227  0
C  C78  1  0.91842711  0.83139902  0.59518252  1  0  -0.173124  0  3.672645  0  0  -0.216018  0  3.922211  0  0  -0.218117  0  3.936334  0  0  -0.174297  -0.214299  0  3.912253  0
C  C79  1  0.04149594  0.26061552  0.48461962  1  0  -0.093796  0  3.692655  0  0  -0.1347  0  3.955846  0  0  -0.135539  0  3.970572  0  0  -0.169028  -0.133756  0  3.945432  0
C  C80  1  0.95850228  0.73938248  0.51538584  1  0  -0.093604  0  3.692576  0  0  -0.134507  0  3.955737  0  0  -0.13532  0  3.970425  0  0  -0.168988  -0.133554  0  3.945316  0
C  C81  1  0.12111435  0.39352486  0.50772664  1  0  -0.100323  0  3.694615  0  0  -0.140306  0  3.955393  0  0  -0.141829  0  3.97132  0  0  -0.166182  -0.138815  0  3.943452  0
C  C82  1  0.87888413  0.60647407  0.49227594  1  0  -0.100541  0  3.694713  0  0  -0.140575  0  3.955557  0  0  -0.142102  0  3.971476  0  0  -0.166256  -0.13908  0  3.943622  0
C  C83  1  0.27479839  0.40316071  0.55977274  1  0  -0.171062  0  3.684849  0  0  -0.21573  0  3.940665  0  0  -0.217188  0  3.954503  0  0  -0.17036  -0.214435  0  3.93097  0
C  C84  1  0.72519836  0.59683915  0.44022793  1  0  -0.170947  0  3.684846  0  0  -0.215619  0  3.940668  0  0  -0.21708  0  3.954511  0  0  -0.170286  -0.214319  0  3.93097  0
C  C85  1  0.31559576  0.31343534  0.47925229  1  0  0.149829  0  3.61326  0  0  0.125968  0  3.86372  0  0  0.13124  0  3.874546  0  0  -0.00448  0.122022  0  3.856624  0
C  C86  1  0.68440298  0.68656452  0.52074818  1  0  0.149975  0  3.613242  0  0  0.1261  0  3.863736  0  0  0.131374  0  3.874561  0  0  -0.004435  0.122164  0  3.856626  0
C  C87  1  0.52542821  0.27096014  0.46812123  1  0  0.060306  0  3.663529  0  0  -0.001298  0  3.942926  0  0  0.005633  0  3.947507  0  0  -0.073484  -0.006215  0  3.940064  0
C  C88  1  0.47456954  0.72903972  0.53187895  1  0  0.060264  0  3.663591  0  0  -0.001312  0  3.942919  0  0  0.005622  0  3.9475  0  0  -0.073478  -0.006231  0  3.940061  0
C  C89  1  0.67830657  0.31631717  0.53798190  1  0  0.065502  0  3.67494  0  0  0.004439  0  3.950789  0  0  0.010536  0  3.957552  0  0  -0.071697  0.000436  0  3.946254  0
C  C90  1  0.32169019  0.68368269  0.46201799  1  0  0.065452  0  3.674986  0  0  0.004449  0  3.950733  0  0  0.010545  0  3.957496  0  0  -0.071708  0.000444  0  3.946199  0
C  C91  1  0.85650596  0.32337668  0.71549499  1  0  0.067248  0  3.667112  0  0  0.006433  0  3.942245  0  0  0.012737  0  3.948135  0  0  -0.071308  0.002325  0  3.938024  0
C  C92  1  0.14349080  0.67662319  0.28450489  1  0  0.067249  0  3.667067  0  0  0.006447  0  3.942237  0  0  0.012753  0  3.948122  0  0  -0.07133  0.002343  0  3.93802  0
C  C93  1  0.88095967  0.29669249  0.83127665  1  0  0.056695  0  3.677427  0  0  -0.003579  0  3.953866  0  0  0.003253  0  3.959098  0  0  -0.079793  -0.008154  0  3.950322  0
C  C94  1  0.11903907  0.70330737  0.16872383  1  0  0.056739  0  3.677345  0  0  -0.003554  0  3.953838  0  0  0.003284  0  3.959066  0  0  -0.079797  -0.008132  0  3.950301  0
C  C95  1  0.83859148  0.36517404  0.00467913  1  0  0.149247  0  3.611685  0  0  0.127743  0  3.859891  0  0  0.133086  0  3.870505  0  0  -0.005494  0.123959  0  3.852851  0
C  C96  1  0.16140700  0.63482489  0.99532111  1  0  0.149202  0  3.61155  0  0  0.127729  0  3.859752  0  0  0.133066  0  3.870379  0  0  -0.00553  0.123946  0  3.852709  0
C  C97  1  0.76294658  0.45239389  0.04948977  1  0  -0.159069  0  3.6811  0  0  -0.202112  0  3.933608  0  0  -0.203674  0  3.948417  0  0  -0.16781  -0.200787  0  3.923105  0
C  C98  1  0.23705117  0.54760597  0.95051041  1  0  -0.159124  0  3.681088  0  0  -0.202205  0  3.933648  0  0  -0.20376  0  3.948441  0  0  -0.167852  -0.20088  0  3.923153  0
C  C99  1  0.78060849  0.45554092  0.17419429  1  0  -0.102357  0  3.680049  0  0  -0.139204  0  3.932837  0  0  -0.141044  0  3.949128  0  0  -0.167451  -0.137706  0  3.92143  0
C  C100  1  0.21939050  0.54445987  0.82580565  1  0  -0.102384  0  3.679992  0  0  -0.139217  0  3.932794  0  0  -0.141054  0  3.949083  0  0  -0.167464  -0.137719  0  3.921383  0
C  C101  1  0.73555131  0.32487661  0.18348911  1  0  -0.095467  0  3.695068  0  0  -0.134955  0  3.957691  0  0  -0.135382  0  3.971823  0  0  -0.17007  -0.134363  0  3.947752  0
C  C102  1  0.26444867  0.67512417  0.81651034  1  0  -0.095322  0  3.694952  0  0  -0.134842  0  3.957614  0  0  -0.135264  0  3.971741  0  0  -0.170005  -0.13425  0  3.947677  0
C  C103  1  0.81401685  0.23914929  0.14018959  1  0  -0.175997  0  3.691722  0  0  -0.219639  0  3.943649  0  0  -0.221927  0  3.95799  0  0  -0.177187  -0.217813  0  3.933548  0
C  C104  1  0.18598288  0.76085056  0.85980962  1  0  -0.176062  0  3.691741  0  0  -0.219694  0  3.943671  0  0  -0.221987  0  3.958011  0  0  -0.177208  -0.217881  0  3.933582  0
C  C105  1  0.79642744  0.23401267  0.01496595  1  0  0.131864  0  3.615949  0  0  0.114352  0  3.854507  0  0  0.118501  0  3.867007  0  0  -0.013555  0.111638  0  3.845775  0
C  C106  1  0.20357255  0.76598811  0.98503428  1  0  0.13198  0  3.615821  0  0  0.11448  0  3.854346  0  0  0.118635  0  3.866846  0  0  -0.013513  0.111782  0  3.845602  0
C  C107  1  0.62679749  0.04696964  0.89896082  1  0  0.060548  0  3.681271  0  0  0.001902  0  3.951581  0  0  0.008407  0  3.956908  0  0  -0.080476  -0.002388  0  3.947977  0
C  C108  1  0.37320125  0.95303022  0.10104044  1  0  0.060492  0  3.681347  0  0  0.001841  0  3.951637  0  0  0.008343  0  3.956969  0  0  -0.080478  -0.002456  0  3.948047  0
C  C109  1  0.47557854  0.99508614  0.82913564  1  0  0.06383  0  3.670366  0  0  0.006644  0  3.939128  0  0  0.013011  0  3.945804  0  0  -0.07324  0.002448  0  3.93434  0
C  C110  1  0.52442045  0.00491464  0.17086507  1  0  0.063814  0  3.670389  0  0  0.006636  0  3.939116  0  0  0.013006  0  3.945792  0  0  -0.073272  0.002446  0  3.934332  0
C  C111  1  0.29271869  0.98263453  0.65527229  1  0  0.06054  0  3.686604  0  0  0.00136  0  3.962013  0  0  0.00745  0  3.968732  0  0  -0.07467  -0.002662  0  3.957292  0
C  C112  1  0.70728277  0.01736438  0.34472804  1  0  0.060578  0  3.686442  0  0  0.001396  0  3.961897  0  0  0.007479  0  3.968635  0  0  -0.07465  -0.002626  0  3.957186  0
C  C113  1  0.25545892  0.01095646  0.53931257  1  0  0.064132  0  3.676371  0  0  0.0025  0  3.953108  0  0  0.008943  0  3.958368  0  0  -0.072803  -0.001778  0  3.949418  0
C  C114  1  0.74454180  0.98904339  0.46068771  1  0  0.064266  0  3.67623  0  0  0.002534  0  3.9531  0  0  0.00896  0  3.958371  0  0  -0.072781  -0.001747  0  3.949419  0
C  C115  1  0.29003131  0.24975660  0.90590386  1  0  0.286779  0  3.812664  0  0  0.275588  0  4.085232  0  0  0.2874  0  4.098324  0  0  0.1824  0.267298  0  4.076879  0
C  C116  1  0.70998854  0.75024779  0.09410214  1  0  0.286886  0  3.812634  0  0  0.275721  0  4.085201  0  0  0.287524  0  4.098293  0  0  0.182499  0.267433  0  4.076864  0
C  C117  1  0.21331065  0.19333625  0.96006105  1  0  -0.050414  0  3.949935  0  0  -0.041036  0  4.213268  0  0  -0.037499  0  4.228687  0  0  -0.028836  -0.043384  0  4.202941  0
C  C118  1  0.78671088  0.80666348  0.03994384  1  0  -0.050461  0  3.950099  0  0  -0.04114  0  4.213467  0  0  -0.037574  0  4.228845  0  0  -0.028963  -0.043501  0  4.203171  0
C  C119  1  0.24131656  0.24086923  0.07688865  1  0  -0.0352  0  3.931722  0  0  -0.024969  0  4.19066  0  0  -0.020644  0  4.206233  0  0  -0.025187  -0.027649  0  4.180146  0
C  C120  1  0.75869851  0.75912868  0.92311712  1  0  -0.035245  0  3.931621  0  0  -0.024945  0  4.190468  0  0  -0.020624  0  4.206026  0  0  -0.025104  -0.027626  0  4.179961  0
C  C121  1  0.34476015  0.35050975  0.14484220  1  0  0.278001  0  3.809784  0  0  0.266345  0  4.084418  0  0  0.277785  0  4.097421  0  0  0.178937  0.258163  0  4.076172  0
C  C122  1  0.65524105  0.64948823  0.85516102  1  0  0.278142  0  3.810006  0  0  0.266463  0  4.084612  0  0  0.277905  0  4.09761  0  0  0.179076  0.258285  0  4.076363  0
S  S123  1  0.08509561  0.06083258  0.87163165  1  0  -0.240461  0  2.354134  0  0  -0.236006  0  2.748075  0  0  -0.250866  0  2.743186  0  0  -0.192108  -0.22615  0  2.751277  0
S  S124  1  0.91491778  0.93916998  0.12837131  1  0  -0.240434  0  2.354153  0  0  -0.235969  0  2.748126  0  0  -0.250841  0  2.743228  0  0  -0.192104  -0.226109  0  2.751337  0
S  S125  1  0.15135953  0.17102368  0.14644742  1  0  -0.237057  0  2.36334  0  0  -0.231427  0  2.75486  0  0  -0.246442  0  2.749668  0  0  -0.189192  -0.22182  0  2.75813  0
S  S126  1  0.84864296  0.82897894  0.85355388  1  0  -0.237044  0  2.363342  0  0  -0.231424  0  2.7548  0  0  -0.246445  0  2.749619  0  0  -0.1892  -0.22181  0  2.758065  0
N  N127  1  0.35168730  0.29293267  0.85756990  1  0  -0.434395  0  2.604136  0  0  -0.40709  0  2.839004  0  0  -0.41425  0  2.846019  0  0  -0.39108  -0.402303  0  2.834512  0
N  N128  1  0.64832613  0.70707362  0.14243922  1  0  -0.434507  0  2.604056  0  0  -0.407217  0  2.838923  0  0  -0.414378  0  2.84594  0  0  -0.391142  -0.402428  0  2.834436  0
N  N129  1  0.42928676  0.44202183  0.20224769  1  0  -0.423358  0  2.574221  0  0  -0.399142  0  2.804983  0  0  -0.405977  0  2.813212  0  0  -0.35147  -0.394519  0  2.799828  0
N  N130  1  0.57071580  0.55798823  0.79775887  1  0  -0.423434  0  2.574638  0  0  -0.39921  0  2.805381  0  0  -0.406046  0  2.813604  0  0  -0.351582  -0.394586  0  2.800221  0
O  O131  1  0.28179119  0.14224878  0.55846358  1  0  -0.348308  0  2.262327  0  0  -0.279098  0  2.508469  0  0  -0.294845  0  2.510812  0  0  -0.263051  -0.267913  0  2.50639  0
O  O132  1  0.71821027  0.85775014  0.44153597  1  0  -0.348317  0  2.262273  0  0  -0.279074  0  2.508445  0  0  -0.294816  0  2.510796  0  0  -0.263046  -0.26789  0  2.506368  0
O  O133  1  0.46083860  0.33153826  0.53558342  1  0  -0.35097  0  2.286952  0  0  -0.283977  0  2.537847  0  0  -0.299272  0  2.538684  0  0  -0.285232  -0.273199  0  2.537158  0
O  O134  1  0.53915841  0.66846253  0.46441592  1  0  -0.350971  0  2.286848  0  0  -0.284018  0  2.537766  0  0  -0.29932  0  2.538604  0  0  -0.285236  -0.273248  0  2.537079  0
O  O135  1  0.71587972  0.27056644  0.63828205  1  0  -0.335993  0  2.259574  0  0  -0.263155  0  2.510293  0  0  -0.278992  0  2.511278  0  0  -0.280248  -0.251979  0  2.509173  0
O  O136  1  0.28411928  0.72943435  0.36171789  1  0  -0.335991  0  2.25944  0  0  -0.263165  0  2.510129  0  0  -0.279001  0  2.511111  0  0  -0.280238  -0.251985  0  2.509009  0
O  O137  1  0.81270306  0.36873228  0.88713766  1  0  -0.361088  0  2.27465  0  0  -0.297663  0  2.526948  0  0  -0.313015  0  2.528102  0  0  -0.284619  -0.286732  0  2.525845  0
O  O138  1  0.18729542  0.63126665  0.11286101  1  0  -0.361075  0  2.274644  0  0  -0.297658  0  2.52695  0  0  -0.313018  0  2.528106  0  0  -0.284601  -0.286728  0  2.525847  0
O  O139  1  0.65641741  0.17948892  0.93398369  1  0  -0.352357  0  2.244001  0  0  -0.283373  0  2.485091  0  0  -0.299329  0  2.488  0  0  -0.270705  -0.272104  0  2.482529  0
O  O140  1  0.34358107  0.82051001  0.06601732  1  0  -0.352352  0  2.243924  0  0  -0.283382  0  2.485033  0  0  -0.299339  0  2.487941  0  0  -0.2707  -0.272119  0  2.482475  0
O  O141  1  0.43689208  0.02623629  0.72093379  1  0  -0.329834  0  2.253398  0  0  -0.259559  0  2.502672  0  0  -0.275149  0  2.50353  0  0  -0.272198  -0.248485  0  2.501692  0
O  O142  1  0.56310740  0.97376263  0.27906595  1  0  -0.329892  0  2.25342  0  0  -0.259597  0  2.502674  0  0  -0.275187  0  2.503537  0  0  -0.272223  -0.248519  0  2.501695  0
