# generated using pymatgen
data_CdH12C18S2(IN3)2
_symmetry_space_group_name_H-M   'P 1'
_cell_length_a   9.97712264
_cell_length_b   10.53049067
_cell_length_c   11.64394693
_cell_angle_alpha   93.17102693
_cell_angle_beta   109.90014011
_cell_angle_gamma   98.08159104
_symmetry_Int_Tables_number   1
_chemical_formula_structural   CdH12C18S2(IN3)2
_chemical_formula_sum   'Cd2 H24 C36 S4 I4 N12'
_cell_volume   1131.87055056
_cell_formula_units_Z   2
loop_
 _symmetry_equiv_pos_site_id
 _symmetry_equiv_pos_as_xyz
  1  'x, y, z'
loop_
 _atom_site_type_symbol
 _atom_site_label
 _atom_site_symmetry_multiplicity
 _atom_site_fract_x
 _atom_site_fract_y
 _atom_site_fract_z
 _atom_site_occupancy
 _atom_site_hle17_bader_spin_density
 _atom_site_hle17_ddec_charge
 _atom_site_hle17_ddec_spin_density
 _atom_site_hle17_ddec_sum_bond_order
 _atom_site_hle17_magmom
 _atom_site_hse06_10hf_bader_spin_density
 _atom_site_hse06_10hf_ddec_charge
 _atom_site_hse06_10hf_ddec_spin_density
 _atom_site_hse06_10hf_ddec_sum_bond_order
 _atom_site_hse06_10hf_magmom
 _atom_site_hse06_bader_spin_density
 _atom_site_hse06_ddec_charge
 _atom_site_hse06_ddec_spin_density
 _atom_site_hse06_ddec_sum_bond_order
 _atom_site_hse06_magmom
 _atom_site_pbe_bader_spin_density
 _atom_site_pbe_cm5_charge
 _atom_site_pbe_ddec_charge
 _atom_site_pbe_ddec_spin_density
 _atom_site_pbe_ddec_sum_bond_order
 _atom_site_pbe_magmom
Cd  Cd0  1  0.79786232  0.17188727  0.96222585  1  0  0.760746  0  2.079494  0  0  0.590148  0  2.548884  0  0  0.635175  0  2.515315  0  0  0.528932  0.559192  0  2.56951  0
Cd  Cd1  1  0.20213942  0.82811338  0.03777540  1  0  0.760751  0  2.079521  0  0  0.59016  0  2.5489  0  0  0.635185  0  2.515333  0  0  0.528947  0.559202  0  2.569532  0
H  H2  1  0.78580595  0.56013271  0.26948800  1  0  0.125829  0  0.932678  0  0  0.132042  0  0.995565  0  0  0.136105  0  0.993188  0  0  0.111928  0.128874  0  0.997656  0
H  H3  1  0.21419508  0.43986987  0.73051143  1  0  0.125801  0  0.932719  0  0  0.13203  0  0.995598  0  0  0.136093  0  0.99322  0  0  0.111919  0.128861  0  0.997691  0
H  H4  1  0.21598196  0.65035687  0.27405345  1  0  0.06078  0  0.970608  0  0  0.066273  0  1.04288  0  0  0.068968  0  1.040077  0  0  0.097741  0.064269  0  1.044649  0
H  H5  1  0.78401658  0.34964377  0.72594344  1  0  0.060751  0  0.970631  0  0  0.066253  0  1.042898  0  0  0.068947  0  1.040095  0  0  0.097758  0.064267  0  1.04465  0
H  H6  1  0.88501424  0.42472849  0.14457679  1  0  0.072506  0  0.95993  0  0  0.076644  0  1.034954  0  0  0.079609  0  1.031536  0  0  0.100641  0.074402  0  1.037672  0
H  H7  1  0.11498536  0.57527215  0.85542299  1  0  0.072465  0  0.959974  0  0  0.076607  0  1.034994  0  0  0.079573  0  1.031573  0  0  0.100628  0.07435  0  1.037724  0
H  H8  1  0.48250594  0.19919143  0.96509672  1  0  0.067016  0  0.966301  0  0  0.073199  0  1.03833  0  0  0.075537  0  1.03641  0  0  0.103282  0.070665  0  1.041165  0
H  H9  1  0.51749473  0.80080922  0.03490251  1  0  0.066995  0  0.966322  0  0  0.073187  0  1.038344  0  0  0.075522  0  1.036428  0  0  0.103282  0.070655  0  1.041176  0
H  H10  1  0.36640866  0.32357495  0.08152993  1  0  0.107568  0  0.976645  0  0  0.116237  0  1.042069  0  0  0.119916  0  1.040221  0  0  0.094219  0.112307  0  1.04565  0
H  H11  1  0.63359076  0.67642473  0.91847146  1  0  0.107574  0  0.976643  0  0  0.116244  0  1.042068  0  0  0.119922  0  1.040223  0  0  0.09423  0.112324  0  1.045642  0
H  H12  1  0.28659622  0.50884333  0.13206897  1  0  0.119182  0  0.974437  0  0  0.12544  0  1.042551  0  0  0.12947  0  1.041201  0  0  0.094935  0.12193  0  1.044911  0
H  H13  1  0.71340338  0.49115732  0.86792909  1  0  0.119184  0  0.974445  0  0  0.125442  0  1.042546  0  0  0.129471  0  1.041199  0  0  0.094934  0.121933  0  1.044908  0
H  H14  1  0.18704718  0.99315814  0.33073808  1  0  0.099121  0  0.990391  0  0  0.10581  0  1.059668  0  0  0.109242  0  1.058037  0  0  0.093616  0.103884  0  1.060229  0
H  H15  1  0.81295277  0.00683865  0.66926161  1  0  0.099068  0  0.990412  0  0  0.105758  0  1.059697  0  0  0.10919  0  1.058066  0  0  0.093603  0.103831  0  1.060258  0
H  H16  1  0.74400533  0.87835126  0.30833908  1  0  0.119177  0  0.947775  0  0  0.122497  0  1.016761  0  0  0.126873  0  1.014115  0  0  0.105126  0.118876  0  1.019557  0
H  H17  1  0.25599321  0.12164938  0.69166039  1  0  0.119166  0  0.947764  0  0  0.122478  0  1.016769  0  0  0.126851  0  1.01413  0  0  0.105134  0.118856  0  1.019564  0
H  H18  1  0.23618235  0.83364517  0.42935536  1  0  0.125648  0  0.958615  0  0  0.132942  0  1.022509  0  0  0.137093  0  1.02031  0  0  0.108853  0.129678  0  1.024775  0
H  H19  1  0.76381795  0.16635355  0.57064453  1  0  0.125629  0  0.958668  0  0  0.132943  0  1.022525  0  0  0.137094  0  1.020327  0  0  0.108858  0.129677  0  1.024793  0
H  H20  1  0.28158298  0.67013355  0.57837146  1  0  0.083081  0  0.93121  0  0  0.085511  0  1.003105  0  0  0.088762  0  0.999427  0  0  0.112511  0.082882  0  1.006231  0
H  H21  1  0.71841787  0.32986806  0.42163045  1  0  0.083082  0  0.931166  0  0  0.085505  0  1.003079  0  0  0.088756  0  0.999401  0  0  0.112513  0.082875  0  1.006205  0
H  H22  1  0.09646170  0.11816667  0.15515499  1  0  0.065617  0  0.975571  0  0  0.06836  0  1.052516  0  0  0.071335  0  1.04976  0  0  0.094484  0.065427  0  1.05605  0
H  H23  1  0.90353879  0.88183301  0.84484499  1  0  0.065597  0  0.975588  0  0  0.068362  0  1.052497  0  0  0.071337  0  1.049739  0  0  0.094479  0.065429  0  1.056031  0
H  H24  1  0.67083501  0.00986649  0.13300386  1  0  0.062744  0  0.984428  0  0  0.06715  0  1.06155  0  0  0.070024  0  1.058476  0  0  0.093543  0.065529  0  1.062956  0
H  H25  1  0.32916566  0.99013416  0.86699451  1  0  0.062765  0  0.984396  0  0  0.067167  0  1.061524  0  0  0.070042  0  1.058449  0  0  0.093547  0.065545  0  1.062933  0
C  C26  1  0.50918829  0.53116438  0.26082967  1  0  0.256886  0  3.750571  0  0  0.253429  0  3.996559  0  0  0.2639  0  4.012992  0  0  0.134852  0.246398  0  3.98478  0
C  C27  1  0.49081132  0.46883626  0.73917097  1  0  0.256865  0  3.750503  0  0  0.253422  0  3.996485  0  0  0.263896  0  4.012914  0  0  0.134827  0.246391  0  3.984706  0
C  C28  1  0.71512481  0.48198593  0.20173074  1  0  -0.117466  0  3.67057  0  0  -0.138915  0  3.92237  0  0  -0.144126  0  3.939291  0  0  -0.071591  -0.135796  0  3.911208  0
C  C29  1  0.28487711  0.51801568  0.79826976  1  0  -0.11748  0  3.670659  0  0  -0.138934  0  3.922452  0  0  -0.144143  0  3.939373  0  0  -0.071581  -0.135812  0  3.911285  0
C  C30  1  0.55285368  0.65388588  0.44083168  1  0  0.352972  0  3.803919  0  0  0.341478  0  4.088836  0  0  0.357581  0  4.100174  0  0  0.241091  0.33043  0  4.080363  0
C  C31  1  0.44714486  0.34611476  0.55916692  1  0  0.35296  0  3.803878  0  0  0.341454  0  4.088811  0  0  0.357557  0  4.100152  0  0  0.241103  0.330407  0  4.080336  0
C  C32  1  0.32609345  0.62943948  0.30052699  1  0  0.16432  0  3.763463  0  0  0.136712  0  4.027223  0  0  0.146319  0  4.042347  0  0  0.04997  0.130875  0  4.015398  0
C  C33  1  0.67390633  0.37056213  0.69947117  1  0  0.164353  0  3.763484  0  0  0.136729  0  4.027256  0  0  0.146336  0  4.04238  0  0  0.049968  0.130878  0  4.015424  0
C  C34  1  0.77064381  0.40663772  0.13319879  1  0  0.136993  0  3.705032  0  0  0.103778  0  3.960299  0  0  0.111839  0  3.976183  0  0  0.042218  0.098436  0  3.949734  0
C  C35  1  0.22935792  0.59336293  0.86680075  1  0  0.137026  0  3.705095  0  0  0.103816  0  3.960315  0  0  0.111876  0  3.976198  0  0  0.042241  0.098489  0  3.949757  0
C  C36  1  0.56781149  0.45434338  0.18481444  1  0  0.066121  0  3.729429  0  0  0.079353  0  3.958548  0  0  0.081573  0  3.979433  0  0  0.01396  0.07828  0  3.943637  0
C  C37  1  0.43218937  0.54565824  0.81518575  1  0  0.066153  0  3.729445  0  0  0.079338  0  3.958628  0  0  0.081555  0  3.979514  0  0  0.013946  0.078265  0  3.943721  0
C  C38  1  0.54514262  0.28106344  0.03259582  1  0  0.121792  0  3.724309  0  0  0.091826  0  3.972785  0  0  0.098163  0  3.992314  0  0  0.036639  0.087559  0  3.95927  0
C  C39  1  0.45485875  0.71893528  0.96740610  1  0  0.121797  0  3.724327  0  0  0.091821  0  3.972801  0  0  0.098161  0  3.992331  0  0  0.03663  0.087554  0  3.959291  0
C  C40  1  0.48119971  0.35171951  0.09728547  1  0  -0.13861  0  3.696897  0  0  -0.156823  0  3.939093  0  0  -0.163458  0  3.96022  0  0  -0.081524  -0.151674  0  3.924619  0
C  C41  1  0.51880096  0.64828114  0.90271547  1  0  -0.138581  0  3.696906  0  0  -0.156793  0  3.939138  0  0  -0.163427  0  3.960266  0  0  -0.081502  -0.151651  0  3.924661  0
C  C42  1  0.36540197  0.55103831  0.22106312  1  0  -0.221923  0  3.698683  0  0  -0.240507  0  3.948817  0  0  -0.251392  0  3.969143  0  0  -0.094767  -0.233443  0  3.935308  0
C  C43  1  0.63459656  0.44896234  0.77893549  1  0  -0.221954  0  3.698697  0  0  -0.24053  0  3.94882  0  0  -0.251411  0  3.969146  0  0  -0.094773  -0.233467  0  3.935319  0
C  C44  1  0.01683248  0.83531669  0.43004011  1  0  0.255345  0  3.731386  0  0  0.253285  0  3.974063  0  0  0.262989  0  3.991388  0  0  0.135262  0.246531  0  3.962622  0
C  C45  1  0.98316676  0.16468203  0.56995947  1  0  0.255438  0  3.731339  0  0  0.25327  0  3.974121  0  0  0.262971  0  3.991447  0  0  0.135259  0.246516  0  3.962678  0
C  C46  1  0.97183679  0.92186027  0.33326146  1  0  0.074906  0  3.723911  0  0  0.087346  0  3.952064  0  0  0.090516  0  3.971632  0  0  0.012333  0.08564  0  3.939335  0
C  C47  1  0.02816208  0.07813651  0.66673791  1  0  0.074767  0  3.724002  0  0  0.087329  0  3.952058  0  0  0.090496  0  3.971623  0  0  0.012357  0.085621  0  3.939328  0
C  C48  1  0.95543121  0.70404738  0.55905076  1  0  0.354397  0  3.810757  0  0  0.341147  0  4.096955  0  0  0.357246  0  4.108948  0  0  0.242183  0.330093  0  4.089318  0
C  C49  1  0.04457052  0.29595327  0.44095050  1  0  0.354453  0  3.810717  0  0  0.341122  0  4.09703  0  0  0.357212  0  4.109041  0  0  0.242087  0.330081  0  4.089369  0
C  C50  1  0.07129764  0.99249145  0.29028607  1  0  -0.141845  0  3.723747  0  0  -0.161603  0  3.97067  0  0  -0.168697  0  3.992323  0  0  -0.085087  -0.157506  0  3.955886  0
C  C51  1  0.92870248  0.00750630  0.70971372  1  0  -0.141752  0  3.723787  0  0  -0.161522  0  3.970633  0  0  -0.168612  0  3.992286  0  0  -0.085106  -0.157422  0  3.955847  0
C  C52  1  0.82523250  0.93007751  0.27702778  1  0  -0.126581  0  3.6722  0  0  -0.145944  0  3.918632  0  0  -0.151824  0  3.937276  0  0  -0.079047  -0.142426  0  3.906694  0
C  C53  1  0.17476567  0.06992120  0.72297148  1  0  -0.126506  0  3.672196  0  0  -0.145908  0  3.918619  0  0  -0.151787  0  3.937264  0  0  -0.079059  -0.142388  0  3.906681  0
C  C54  1  0.15316467  0.79791695  0.46617841  1  0  -0.208937  0  3.66167  0  0  -0.226075  0  3.905751  0  0  -0.236662  0  3.925631  0  0  -0.084511  -0.21918  0  3.892792  0
C  C55  1  0.84683601  0.20208369  0.53382426  1  0  -0.20898  0  3.66174  0  0  -0.226113  0  3.905848  0  0  -0.236696  0  3.925727  0  0  -0.084526  -0.219221  0  3.892895  0
C  C56  1  0.17920388  0.70642813  0.54982808  1  0  0.192295  0  3.694717  0  0  0.163252  0  3.956218  0  0  0.173917  0  3.969747  0  0  0.06505  0.156536  0  3.94656  0
C  C57  1  0.82079910  0.29357349  0.45017359  1  0  0.19238  0  3.694667  0  0  0.163334  0  3.956162  0  0  0.173998  0  3.969689  0  0  0.065083  0.156618  0  3.9465  0
C  C58  1  0.02176179  0.06332926  0.19179737  1  0  0.109291  0  3.747882  0  0  0.079612  0  4.001282  0  0  0.08572  0  4.020563  0  0  0.031848  0.075385  0  3.989144  0
C  C59  1  0.97823852  0.93666946  0.80820165  1  0  0.109276  0  3.747903  0  0  0.079587  0  4.001332  0  0  0.085693  0  4.020614  0  0  0.031859  0.07536  0  3.989195  0
C  C60  1  0.78446878  0.00274923  0.17887532  1  0  0.123293  0  3.716214  0  0  0.093718  0  3.964074  0  0  0.100272  0  3.982911  0  0  0.034766  0.089589  0  3.95021  0
C  C61  1  0.21553153  0.99724949  0.82112371  1  0  0.123246  0  3.716149  0  0  0.093691  0  3.964004  0  0  0.100244  0  3.982843  0  0  0.034751  0.089562  0  3.950145  0
S  S62  1  0.66751801  0.72636379  0.58992203  1  0  0.014473  0  2.431326  0  0  0.00442  0  2.799858  0  0  0.002714  0  2.795859  0  0  0.055382  0.005576  0  2.804718  0
S  S63  1  0.33248053  0.27363686  0.41007744  1  0  0.014495  0  2.431322  0  0  0.004453  0  2.799853  0  0  0.002748  0  2.795855  0  0  0.055392  0.005608  0  2.804712  0
S  S64  1  0.83832906  0.63167437  0.63164792  1  0  -0.003481  0  2.4697  0  0  -0.01381  0  2.847965  0  0  -0.01791  0  2.846059  0  0  0.054431  -0.01123  0  2.850578  0
S  S65  1  0.16167055  0.36832628  0.36835357  1  0  -0.003543  0  2.469727  0  0  -0.013856  0  2.848026  0  0  -0.017949  0  2.846124  0  0  0.054423  -0.011282  0  2.850634  0
I  I66  1  0.04651479  0.30485859  0.94825694  1  0  -0.483893  0  1.060998  0  0  -0.427323  0  1.382004  0  0  -0.446038  0  1.362971  0  0  -0.229976  -0.411404  0  1.396476  0
I  I67  1  0.95348588  0.69514206  0.05174057  1  0  -0.483878  0  1.06101  0  0  -0.427304  0  1.382006  0  0  -0.44602  0  1.362977  0  0  -0.229959  -0.411383  0  1.396479  0
I  I68  1  0.57964572  0.00831041  0.78531876  1  0  -0.470626  0  0.989304  0  0  -0.41082  0  1.28604  0  0  -0.42991  0  1.266937  0  0  -0.238995  -0.39815  0  1.29904  0
I  I69  1  0.42035389  0.99169024  0.21468274  1  0  -0.470632  0  0.989303  0  0  -0.410829  0  1.286042  0  0  -0.429921  0  1.266939  0  0  -0.239003  -0.398158  0  1.29904  0
N  N70  1  0.68735107  0.30757213  0.05029573  1  0  -0.315782  0  3.284546  0  0  -0.230013  0  3.542156  0  0  -0.249836  0  3.562666  0  0  -0.338694  -0.215661  0  3.527948  0
N  N71  1  0.31264835  0.69242755  0.94970480  1  0  -0.315765  0  3.284533  0  0  -0.229992  0  3.542128  0  0  -0.249816  0  3.562637  0  0  -0.338698  -0.21564  0  3.527916  0
N  N72  1  0.60415274  0.58399445  0.37199684  1  0  -0.402227  0  3.049637  0  0  -0.371794  0  3.313588  0  0  -0.386828  0  3.326767  0  0  -0.308237  -0.360734  0  3.303686  0
N  N73  1  0.39584830  0.41600813  0.62800259  1  0  -0.402205  0  3.049647  0  0  -0.371771  0  3.313601  0  0  -0.386804  0  3.326781  0  0  -0.308226  -0.360709  0  3.303699  0
N  N74  1  0.41884412  0.68164967  0.41156829  1  0  -0.373214  0  3.036959  0  0  -0.33818  0  3.305659  0  0  -0.352933  0  3.317527  0  0  -0.315821  -0.327374  0  3.297329  0
N  N75  1  0.58115530  0.31835001  0.58843139  1  0  -0.373208  0  3.036896  0  0  -0.338163  0  3.30559  0  0  -0.352916  0  3.317459  0  0  -0.31584  -0.327358  0  3.297267  0
N  N76  1  0.91665749  0.78786600  0.47793058  1  0  -0.406878  0  3.048308  0  0  -0.374435  0  3.310973  0  0  -0.390044  0  3.325313  0  0  -0.308479  -0.363562  0  3.301273  0
N  N77  1  0.08334176  0.21213272  0.52206899  1  0  -0.406874  0  3.048297  0  0  -0.374381  0  3.31102  0  0  -0.389989  0  3.325368  0  0  -0.308431  -0.363511  0  3.301313  0
N  N78  1  0.08041724  0.65806221  0.59689193  1  0  -0.370198  0  3.03241  0  0  -0.328928  0  3.293305  0  0  -0.345095  0  3.307185  0  0  -0.312829  -0.318161  0  3.284029  0
N  N79  1  0.91958343  0.34193844  0.40310987  1  0  -0.370273  0  3.032366  0  0  -0.328957  0  3.293268  0  0  -0.345122  0  3.30715  0  0  -0.3128  -0.318192  0  3.283985  0
N  N80  1  0.88044940  0.06726244  0.13573995  1  0  -0.310431  0  3.291974  0  0  -0.226443  0  3.550481  0  0  -0.246106  0  3.571207  0  0  -0.340241  -0.21295  0  3.535878  0
N  N81  1  0.11955109  0.93273724  0.86426004  1  0  -0.310416  0  3.291935  0  0  -0.226446  0  3.550461  0  0  -0.246111  0  3.571194  0  0  -0.340248  -0.212952  0  3.535859  0
