# generated using pymatgen
data_CdH5C3SN4Cl
_symmetry_space_group_name_H-M   'P 1'
_cell_length_a   8.64488705
_cell_length_b   10.94235231
_cell_length_c   17.19470000
_cell_angle_alpha   104.93751108
_cell_angle_beta   90.00000000
_cell_angle_gamma   90.00000000
_symmetry_Int_Tables_number   1
_chemical_formula_structural   CdH5C3SN4Cl
_chemical_formula_sum   'Cd8 H40 C24 S8 N32 Cl8'
_cell_volume   1571.57473238
_cell_formula_units_Z   8
loop_
 _symmetry_equiv_pos_site_id
 _symmetry_equiv_pos_as_xyz
  1  'x, y, z'
loop_
 _atom_site_type_symbol
 _atom_site_label
 _atom_site_symmetry_multiplicity
 _atom_site_fract_x
 _atom_site_fract_y
 _atom_site_fract_z
 _atom_site_occupancy
 _atom_site_hle17_bader_spin_density
 _atom_site_hle17_ddec_charge
 _atom_site_hle17_ddec_spin_density
 _atom_site_hle17_ddec_sum_bond_order
 _atom_site_hle17_magmom
 _atom_site_hse06_10hf_bader_spin_density
 _atom_site_hse06_10hf_ddec_charge
 _atom_site_hse06_10hf_ddec_spin_density
 _atom_site_hse06_10hf_ddec_sum_bond_order
 _atom_site_hse06_10hf_magmom
 _atom_site_hse06_bader_spin_density
 _atom_site_hse06_ddec_charge
 _atom_site_hse06_ddec_spin_density
 _atom_site_hse06_ddec_sum_bond_order
 _atom_site_hse06_magmom
 _atom_site_pbe_bader_charge
 _atom_site_pbe_bader_spin_density
 _atom_site_pbe_cm5_charge
 _atom_site_pbe_ddec_charge
 _atom_site_pbe_ddec_spin_density
 _atom_site_pbe_ddec_sum_bond_order
 _atom_site_pbe_magmom
Cd  Cd0  1  0.54582668  0.16157735  0.82948052  1  0  0.978256  0  1.933496  0  0  0.76832  0  2.423123  0  0  0.814683  0  2.380797  0  1.129463  0  0.728965  0.735805  0  2.451797  0
Cd  Cd1  1  0.04582709  0.33842250  0.17052062  1  0  0.978238  0  1.933425  0  0  0.768346  0  2.422971  0  0  0.8147  0  2.380664  0  1.129465  0  0.729005  0.735833  0  2.451645  0
Cd  Cd2  1  0.45417250  0.83842140  0.17051928  1  0  0.978254  0  1.933474  0  0  0.768355  0  2.423061  0  0  0.814715  0  2.380739  0  1.12946  0  0.728988  0.73584  0  2.451736  0
Cd  Cd3  1  0.95417210  0.66157909  0.82948022  1  0  0.97825  0  1.933439  0  0  0.768365  0  2.422985  0  0  0.814705  0  2.380698  0  1.129442  0  0.729  0.735849  0  2.45166  0
Cd  Cd4  1  0.45618872  0.26467515  0.62975290  1  0  0.987112  0  1.879928  0  0  0.777096  0  2.363222  0  0  0.8256  0  2.319853  0  1.123968  0  0.724829  0.743094  0  2.392573  0
Cd  Cd5  1  0.95618716  0.23532565  0.37024665  1  0  0.987083  0  1.880017  0  0  0.777069  0  2.363329  0  0  0.825558  0  2.319993  0  1.124145  0  0.724798  0.743067  0  2.392681  0
Cd  Cd6  1  0.54381162  0.73532739  0.37024810  1  0  0.987114  0  1.879946  0  0  0.77709  0  2.363248  0  0  0.82559  0  2.319895  0  1.123962  0  0.724802  0.743089  0  2.392599  0
Cd  Cd7  1  0.04381202  0.76467594  0.62975419  1  0  0.987133  0  1.879958  0  0  0.777109  0  2.363254  0  0  0.825611  0  2.31989  0  1.124071  0  0.724823  0.743105  0  2.392608  0
H  H8  1  0.26471948  0.05468105  0.51223872  1  0  0.317575  0  0.937983  0  0  0.297639  0  1.011915  0  0  0.304094  0  1.007081  0  0.49896  0  0.279755  0.293017  0  1.015466  0
H  H9  1  0.76472370  0.44531785  0.48775993  1  0  0.317598  0  0.937958  0  0  0.297669  0  1.011881  0  0  0.304123  0  1.007046  0  0.498905  0  0.279748  0.293046  0  1.015432  0
H  H10  1  0.73527970  0.94531959  0.48776022  1  0  0.317591  0  0.937974  0  0  0.297653  0  1.011907  0  0  0.304108  0  1.007073  0  0.498981  0  0.279775  0.293031  0  1.015458  0
H  H11  1  0.23527549  0.55468374  0.51224265  1  0  0.317689  0  0.937963  0  0  0.297736  0  1.011904  0  0  0.304188  0  1.007072  0  0.498506  0  0.279785  0.293113  0  1.015456  0
H  H12  1  0.15912296  0.91949525  0.51317915  1  0  0.321247  0  0.932841  0  0  0.303228  0  1.002903  0  0  0.309698  0  0.997919  0  0.490726  0  0.278802  0.29865  0  1.006396  0
H  H13  1  0.65912255  0.58050808  0.48682372  1  0  0.321337  0  0.932789  0  0  0.303337  0  1.002809  0  0  0.309808  0  0.997821  0  0.490696  0  0.27882  0.298758  0  1.006303  0
H  H14  1  0.84087507  0.08050540  0.48681979  1  0  0.321202  0  0.932872  0  0  0.303191  0  1.002923  0  0  0.309662  0  0.997939  0  0.490736  0  0.278774  0.298613  0  1.006416  0
H  H15  1  0.34087663  0.41949634  0.51317933  1  0  0.321117  0  0.932975  0  0  0.303131  0  1.003007  0  0  0.309601  0  0.998024  0  0.490713  0  0.278752  0.298554  0  1.006498  0
H  H16  1  0.77629123  0.35914023  0.94443442  1  0  0.335873  0  0.896079  0  0  0.318619  0  0.961905  0  0  0.325085  0  0.956796  0  0.480139  0  0.29446  0.31402  0  0.965572  0
H  H17  1  0.27629164  0.14085489  0.05556245  1  0  0.335815  0  0.896251  0  0  0.318558  0  0.96208  0  0  0.325023  0  0.956968  0  0.479707  0  0.294441  0.31396  0  0.965746  0
H  H18  1  0.22371027  0.64085663  0.05556506  1  0  0.335872  0  0.896139  0  0  0.318622  0  0.961949  0  0  0.325086  0  0.956837  0  0.480177  0  0.294476  0.314024  0  0.965616  0
H  H19  1  0.72370755  0.85914197  0.94443820  1  0  0.335872  0  0.896092  0  0  0.318613  0  0.961929  0  0  0.32508  0  0.956819  0  0.479752  0  0.294453  0.314015  0  0.965596  0
H  H20  1  0.85431770  0.50559545  0.94686806  1  0  0.325151  0  0.923426  0  0  0.306093  0  0.995164  0  0  0.312797  0  0.98976  0  0.504225  0  0.28462  0.301372  0  0.998913  0
H  H21  1  0.35431695  0.99440409  0.05313012  1  0  0.325113  0  0.923526  0  0  0.306028  0  0.995299  0  0  0.312732  0  0.989887  0  0.504163  0  0.284582  0.301309  0  0.999047  0
H  H22  1  0.14568611  0.49440424  0.05313305  1  0  0.325129  0  0.923488  0  0  0.306079  0  0.995205  0  0  0.312783  0  0.989793  0  0.504229  0  0.284604  0.30136  0  0.998951  0
H  H23  1  0.64568455  0.00559371  0.94686894  1  0  0.325114  0  0.92354  0  0  0.306061  0  0.995262  0  0  0.312767  0  0.989848  0  0.504205  0  0.284605  0.301339  0  0.99902  0
H  H24  1  0.53750731  0.72777389  0.65441502  1  0  0.145022  0  0.950822  0  0  0.164265  0  1.008198  0  0  0.166136  0  1.008151  0  0.110643  0  0.088299  0.162865  0  1.008434  0
H  H25  1  0.03750772  0.77222944  0.34558611  1  0  0.145029  0  0.950836  0  0  0.164243  0  1.008251  0  0  0.166116  0  1.008203  0  0.11066  0  0.088277  0.162843  0  1.008487  0
H  H26  1  0.46249766  0.27222770  0.34558524  1  0  0.14508  0  0.950702  0  0  0.164275  0  1.008163  0  0  0.166146  0  1.008117  0  0.110644  0  0.088308  0.162875  0  1.008399  0
H  H27  1  0.96249609  0.22776931  0.65441485  1  0  0.144973  0  0.950904  0  0  0.164191  0  1.008329  0  0  0.166063  0  1.008281  0  0.110633  0  0.088254  0.162791  0  1.008564  0
H  H28  1  0.43922494  0.63490538  0.71073928  1  0  0.123298  0  0.975887  0  0  0.140323  0  1.037862  0  0  0.141156  0  1.039746  0  0.067869  0  0.089408  0.139656  0  1.036666  0
H  H29  1  0.93922453  0.86509511  0.28926080  1  0  0.123284  0  0.975901  0  0  0.140309  0  1.037876  0  0  0.141141  0  1.039761  0  0.067852  0  0.089403  0.139642  0  1.036679  0
H  H30  1  0.56077771  0.36509526  0.28926024  1  0  0.123237  0  0.975938  0  0  0.140302  0  1.037869  0  0  0.141134  0  1.039754  0  0.0678  0  0.089411  0.139635  0  1.036673  0
H  H31  1  0.06077581  0.13490364  0.71073958  1  0  0.123259  0  0.975931  0  0  0.140298  0  1.037885  0  0  0.14113  0  1.03977  0  0.067886  0  0.089425  0.139631  0  1.036689  0
H  H32  1  0.59858850  0.73393700  0.75535562  1  0  0.119657  0  0.977847  0  0  0.134619  0  1.042994  0  0  0.136027  0  1.043763  0  0.077843  0  0.086569  0.133552  0  1.042576  0
H  H33  1  0.09858660  0.76606255  0.24464488  1  0  0.11967  0  0.977851  0  0  0.134616  0  1.043012  0  0  0.136023  0  1.043783  0  0.077899  0  0.086581  0.133549  0  1.042594  0
H  H34  1  0.40141415  0.26606364  0.24464448  1  0  0.119617  0  0.977867  0  0  0.134584  0  1.043014  0  0  0.13599  0  1.043785  0  0.077902  0  0.086565  0.133518  0  1.042596  0
H  H35  1  0.90141606  0.23393526  0.75535534  1  0  0.119645  0  0.977876  0  0  0.134581  0  1.043054  0  0  0.135988  0  1.043825  0  0.077916  0  0.086522  0.133513  0  1.042634  0
H  H36  1  0.12899879  0.97099922  0.93197157  1  0  0.13809  0  0.938511  0  0  0.156723  0  0.998347  0  0  0.158808  0  0.997779  0  0.102106  0  0.095225  0.155157  0  0.998852  0
H  H37  1  0.62899839  0.52900222  0.06802808  1  0  0.138075  0  0.938521  0  0  0.156711  0  0.998361  0  0  0.158796  0  0.997792  0  0.102096  0  0.09522  0.155145  0  0.998865  0
H  H38  1  0.87100039  0.02898819  0.06802695  1  0  0.138039  0  0.938589  0  0  0.15668  0  0.99844  0  0  0.158764  0  0.997873  0  0.102238  0  0.095185  0.155112  0  0.998949  0
H  H39  1  0.37099964  0.47101072  0.93197287  1  0  0.138076  0  0.938552  0  0  0.156705  0  0.998404  0  0  0.15879  0  0.997836  0  0.102317  0  0.095181  0.155137  0  0.998911  0
H  H40  1  0.21793576  0.10179631  0.90505578  1  0  0.114043  0  0.986163  0  0  0.127374  0  1.057279  0  0  0.129254  0  1.056926  0  0.083783  0  0.078212  0.125917  0  1.057728  0
H  H41  1  0.71793882  0.39820637  0.09494582  1  0  0.11403  0  0.986228  0  0  0.127369  0  1.057324  0  0  0.129245  0  1.056975  0  0.083783  0  0.078207  0.125912  0  1.057774  0
H  H42  1  0.78205649  0.89819582  0.09494526  1  0  0.114005  0  0.986326  0  0  0.127351  0  1.057414  0  0  0.129233  0  1.057058  0  0.083629  0  0.078218  0.125894  0  1.057864  0
H  H43  1  0.28205342  0.60180184  0.90505378  1  0  0.114034  0  0.986321  0  0  0.12736  0  1.05742  0  0  0.129245  0  1.057062  0  0.083612  0  0.078212  0.125903  0  1.05787  0
H  H44  1  0.05120946  0.02596149  0.85073051  1  0  0.129598  0  0.958926  0  0  0.148314  0  1.015063  0  0  0.149476  0  1.016447  0  0.071379  0  0.091401  0.147412  0  1.014181  0
H  H45  1  0.55120790  0.47403647  0.14926741  1  0  0.129589  0  0.958915  0  0  0.148299  0  1.015057  0  0  0.149461  0  1.01644  0  0.071419  0  0.091395  0.147401  0  1.014176  0
H  H46  1  0.94878741  0.97402875  0.14926847  1  0  0.129609  0  0.95888  0  0  0.148326  0  1.015006  0  0  0.149487  0  1.016392  0  0.071421  0  0.091417  0.147429  0  1.014128  0
H  H47  1  0.44878666  0.52597174  0.85073278  1  0  0.129602  0  0.958923  0  0  0.148297  0  1.015071  0  0  0.149459  0  1.016455  0  0.071448  0  0.091404  0.147398  0  1.014189  0
C  C48  1  0.69173720  0.47023040  0.73216939  1  0  0.295016  0  3.853642  0  0  0.264826  0  4.146101  0  0  0.282094  0  4.159729  0  0.903626  0  0.202626  0.253474  0  4.136386  0
C  C49  1  0.19173761  0.02976945  0.26782768  1  0  0.295084  0  3.853529  0  0  0.264838  0  4.146063  0  0  0.282105  0  4.159688  0  0.903257  0  0.202577  0.253487  0  4.136352  0
C  C50  1  0.30826429  0.52977025  0.26783188  1  0  0.295031  0  3.853648  0  0  0.264838  0  4.146111  0  0  0.282107  0  4.159739  0  0.903675  0  0.202612  0.253487  0  4.136397  0
C  C51  1  0.80826273  0.97023025  0.73217111  1  0  0.295077  0  3.853619  0  0  0.26485  0  4.146116  0  0  0.282117  0  4.159747  0  0.903256  0  0.202578  0.253499  0  4.136405  0
C  C52  1  0.26517408  0.00428750  0.61817904  1  0  0.609357  0  3.841696  0  0  0.560956  0  4.11597  0  0  0.586155  0  4.124805  0  1.509644  0  0.321518  0.543977  0  4.109631  0
C  C53  1  0.76517136  0.49571234  0.38182442  1  0  0.609342  0  3.841697  0  0  0.561082  0  4.115811  0  0  0.586282  0  4.124639  0  1.509339  0  0.321606  0.544102  0  4.109472  0
C  C54  1  0.73482857  0.99571409  0.38182006  1  0  0.609491  0  3.841549  0  0  0.56104  0  4.115891  0  0  0.586241  0  4.124722  0  1.509613  0  0.321608  0.544061  0  4.109552  0
C  C55  1  0.23482667  0.50428641  0.61818293  1  0  0.609587  0  3.841298  0  0  0.561091  0  4.115702  0  0  0.586288  0  4.124531  0  1.509738  0  0.321603  0.544113  0  4.109366  0
C  C56  1  0.29561404  0.96467342  0.73364986  1  0  0.293577  0  3.846986  0  0  0.265183  0  4.137059  0  0  0.282476  0  4.15079  0  0.911661  0  0.198609  0.253778  0  4.127446  0
C  C57  1  0.79561016  0.53532802  0.26635212  1  0  0.293405  0  3.847405  0  0  0.265056  0  4.137438  0  0  0.282348  0  4.151164  0  0.911585  0  0.198452  0.253651  0  4.127824  0
C  C58  1  0.70438514  0.03532817  0.26634924  1  0  0.293514  0  3.84693  0  0  0.265135  0  4.137003  0  0  0.282427  0  4.150733  0  0.912111  0  0.198564  0.253732  0  4.127388  0
C  C59  1  0.20439018  0.46467168  0.73364841  1  0  0.293451  0  3.847328  0  0  0.265115  0  4.137326  0  0  0.282405  0  4.151052  0  0.911602  0  0.198483  0.25371  0  4.127712  0
C  C60  1  0.73249656  0.42608130  0.84544528  1  0  0.600589  0  3.857533  0  0  0.549982  0  4.13775  0  0  0.575197  0  4.146053  0  1.525801  0  0.323444  0.532913  0  4.131909  0
C  C61  1  0.23249234  0.07391666  0.15455846  1  0  0.600607  0  3.857589  0  0  0.55005  0  4.137722  0  0  0.575258  0  4.14603  0  1.525109  0  0.32347  0.532983  0  4.131885  0
C  C62  1  0.26750841  0.57391745  0.15455917  1  0  0.600468  0  3.857499  0  0  0.5499  0  4.13767  0  0  0.575109  0  4.145977  0  1.525294  0  0.32339  0.532832  0  4.131834  0
C  C63  1  0.76750106  0.92608304  0.84544498  1  0  0.600597  0  3.857432  0  0  0.549982  0  4.137657  0  0  0.575195  0  4.145961  0  1.525278  0  0.32341  0.532915  0  4.13182  0
C  C64  1  0.55109916  0.67377290  0.69961772  1  0  -0.315095  0  3.594739  0  0  -0.384939  0  3.842689  0  0  -0.386435  0  3.849462  0  -0.183869  0  -0.239488  -0.38377  0  3.838227  0
C  C65  1  0.05110073  0.82623043  0.30038340  1  0  -0.315064  0  3.594775  0  0  -0.38487  0  3.842709  0  0  -0.386366  0  3.849484  0  -0.183962  0  -0.239448  -0.3837  0  3.838245  0
C  C66  1  0.44890465  0.32622869  0.30038254  1  0  -0.315009  0  3.594622  0  0  -0.384862  0  3.842606  0  0  -0.386358  0  3.849381  0  -0.183878  0  -0.239477  -0.383695  0  3.838143  0
C  C67  1  0.94890077  0.17376832  0.69961697  1  0  -0.314966  0  3.594851  0  0  -0.38479  0  3.842797  0  0  -0.386286  0  3.849574  0  -0.183924  0  -0.23942  -0.383618  0  3.838331  0
C  C68  1  0.15744914  0.01192518  0.88181857  1  0  -0.316536  0  3.619847  0  0  -0.385841  0  3.867001  0  0  -0.387353  0  3.873946  0  -0.17352  0  -0.236844  -0.384568  0  3.862357  0
C  C69  1  0.65744989  0.48807467  0.11818141  1  0  -0.31652  0  3.619846  0  0  -0.385835  0  3.86704  0  0  -0.387342  0  3.873988  0  -0.173537  0  -0.236847  -0.384568  0  3.862401  0
C  C70  1  0.84254658  0.98806600  0.11818115  1  0  -0.316462  0  3.62  0  0  -0.385829  0  3.867269  0  0  -0.387342  0  3.874219  0  -0.173572  0  -0.236841  -0.384564  0  3.862628  0
C  C71  1  0.34254467  0.51193260  0.88181862  1  0  -0.316522  0  3.619987  0  0  -0.38582  0  3.867215  0  0  -0.387333  0  3.87416  0  -0.173629  0  -0.236828  -0.384552  0  3.862571  0
S  S72  1  0.28175498  0.89700784  0.81507758  1  0  -0.02203  0  2.369546  0  0  -0.013248  0  2.717724  0  0  -0.015682  0  2.713896  0  0.076818  0  -0.003715  -0.011793  0  2.720496  0
S  S73  1  0.78175226  0.60299360  0.18492498  1  0  -0.021979  0  2.369533  0  0  -0.013219  0  2.717725  0  0  -0.01565  0  2.713896  0  0.076851  0  -0.003677  -0.011762  0  2.720496  0
S  S74  1  0.71824652  0.10299186  0.18491946  1  0  -0.021996  0  2.369566  0  0  -0.013229  0  2.717794  0  0  -0.015648  0  2.713942  0  0.076777  0  -0.0037  -0.011769  0  2.720561  0
S  S75  1  0.21824577  0.39701083  0.81507749  1  0  -0.022054  0  2.369622  0  0  -0.013287  0  2.717775  0  0  -0.015727  0  2.713966  0  0.076842  0  -0.003713  -0.011832  0  2.720549  0
S  S76  1  0.68543174  0.54736670  0.65538280  1  0  -0.00206  0  2.409869  0  0  0.009869  0  2.770459  0  0  0.007844  0  2.765401  0  0.106055  0  0.010834  0.0111  0  2.773897  0
S  S77  1  0.18543446  0.95263663  0.34461542  1  0  -0.002119  0  2.40984  0  0  0.009844  0  2.77041  0  0  0.00782  0  2.765354  0  0.106107  0  0.010826  0.011076  0  2.773848  0
S  S78  1  0.31456860  0.45263394  0.34461847  1  0  -0.002095  0  2.409901  0  0  0.009845  0  2.770488  0  0  0.007821  0  2.76543  0  0.106049  0  0.01083  0.011076  0  2.773927  0
S  S79  1  0.81456588  0.04736307  0.65538337  1  0  -0.002093  0  2.409787  0  0  0.009861  0  2.770361  0  0  0.007835  0  2.765306  0  0.106005  0  0.01086  0.011091  0  2.773799  0
N  N80  1  0.64762095  0.33047269  0.79970328  1  0  -0.414351  0  3.150816  0  0  -0.338367  0  3.435446  0  0  -0.360211  0  3.450603  0  -0.772084  0  -0.290523  -0.323181  0  3.42454  0
N  N81  1  0.14762483  0.16952621  0.20029305  1  0  -0.414147  0  3.15082  0  0  -0.338187  0  3.435421  0  0  -0.360025  0  3.450575  0  -0.772571  0  -0.290417  -0.323006  0  3.424518  0
N  N82  1  0.35237592  0.66952606  0.20029535  1  0  -0.414126  0  3.150708  0  0  -0.338187  0  3.435343  0  0  -0.360027  0  3.450498  0  -0.772589  0  -0.290443  -0.323005  0  3.424439  0
N  N83  1  0.85237782  0.83047443  0.79970648  1  0  -0.414283  0  3.150685  0  0  -0.338321  0  3.435344  0  0  -0.360161  0  3.450498  0  -0.772526  0  -0.290484  -0.323136  0  3.424438  0
N  N84  1  0.62206134  0.36007189  0.72741044  1  0  -0.330796  0  3.261996  0  0  -0.262774  0  3.549296  0  0  -0.280817  0  3.567349  0  -0.768303  0  -0.270734  -0.250594  0  3.536475  0
N  N85  1  0.12206059  0.13992796  0.27258720  1  0  -0.330892  0  3.261842  0  0  -0.262852  0  3.549165  0  0  -0.280894  0  3.567211  0  -0.767796  0  -0.27075  -0.250677  0  3.536356  0
N  N86  1  0.37793900  0.63992876  0.27258966  1  0  -0.33089  0  3.261846  0  0  -0.26287  0  3.549179  0  0  -0.280914  0  3.567227  0  -0.768299  0  -0.270769  -0.250692  0  3.536364  0
N  N87  1  0.87794091  0.86006890  0.72741286  1  0  -0.330843  0  3.261775  0  0  -0.262809  0  3.549108  0  0  -0.280853  0  3.567159  0  -0.767833  0  -0.270733  -0.250629  0  3.536289  0
N  N88  1  0.22162464  0.92219752  0.66181983  1  0  -0.558577  0  3.13041  0  0  -0.476335  0  3.407739  0  0  -0.502553  0  3.416773  0  -1.203722  0  -0.373296  -0.458476  0  3.401134  0
N  N89  1  0.72162192  0.57780581  0.33818304  1  0  -0.558433  0  3.130572  0  0  -0.476227  0  3.407778  0  0  -0.502465  0  3.416864  0  -1.203551  0  -0.373185  -0.458368  0  3.401171  0
N  N90  1  0.77837107  0.07780407  0.33817810  1  0  -0.558557  0  3.130475  0  0  -0.476329  0  3.407831  0  0  -0.502553  0  3.416879  0  -1.204149  0  -0.373297  -0.45847  0  3.401225  0
N  N91  1  0.27837726  0.42219294  0.66181733  1  0  -0.558551  0  3.130603  0  0  -0.476277  0  3.407883  0  0  -0.502505  0  3.416953  0  -1.203894  0  -0.373211  -0.458419  0  3.401279  0
N  N92  1  0.76357851  0.51452137  0.80459609  1  0  -0.563705  0  3.126713  0  0  -0.482091  0  3.406467  0  0  -0.507695  0  3.414476  0  -1.234931  0  -0.377588  -0.46464  0  3.400689  0
N  N93  1  0.26357892  0.98547912  0.19540166  1  0  -0.563748  0  3.127133  0  0  -0.482132  0  3.406877  0  0  -0.507741  0  3.414898  0  -1.235065  0  -0.377599  -0.464675  0  3.401079  0
N  N94  1  0.23642183  0.48547833  0.19540502  1  0  -0.563654  0  3.126714  0  0  -0.482044  0  3.406443  0  0  -0.507649  0  3.414454  0  -1.234895  0  -0.377537  -0.464588  0  3.400653  0
N  N95  1  0.73642373  0.01452247  0.80459627  1  0  -0.563702  0  3.126921  0  0  -0.482053  0  3.406649  0  0  -0.507661  0  3.414668  0  -1.234946  0  -0.377516  -0.464593  0  3.40085  0
N  N96  1  0.38118717  0.06628749  0.73459833  1  0  -0.337064  0  3.299857  0  0  -0.269237  0  3.593439  0  0  -0.287485  0  3.611928  0  -0.788497  0  -0.280728  -0.257001  0  3.58055  0
N  N97  1  0.88118444  0.43371614  0.26540227  1  0  -0.336987  0  3.299926  0  0  -0.269156  0  3.593474  0  0  -0.287404  0  3.611966  0  -0.788473  0  -0.280678  -0.256919  0  3.580582  0
N  N98  1  0.61881086  0.93371221  0.26540104  1  0  -0.337015  0  3.299691  0  0  -0.269187  0  3.593253  0  0  -0.287436  0  3.611743  0  -0.788503  0  -0.280708  -0.25695  0  3.580363  0
N  N99  1  0.11881474  0.56628261  0.73459753  1  0  -0.336923  0  3.299771  0  0  -0.269106  0  3.593299  0  0  -0.28735  0  3.611785  0  -0.788352  0  -0.280662  -0.256869  0  3.580407  0
N  N100  1  0.36191450  0.09333575  0.66123800  1  0  -0.408936  0  3.139714  0  0  -0.339277  0  3.431004  0  0  -0.361217  0  3.446015  0  -0.754932  0  -0.289064  -0.324093  0  3.420247  0
N  N101  1  0.86191178  0.40666504  0.33876155  1  0  -0.408988  0  3.139559  0  0  -0.339387  0  3.430817  0  0  -0.361326  0  3.445828  0  -0.754691  0  -0.289147  -0.324202  0  3.420059  0
N  N102  1  0.63808352  0.90666489  0.33876152  1  0  -0.409122  0  3.139571  0  0  -0.339431  0  3.430878  0  0  -0.361371  0  3.445887  0  -0.75489  0  -0.289147  -0.324247  0  3.420122  0
N  N103  1  0.13809203  0.59333371  0.66123767  1  0  -0.409096  0  3.139792  0  0  -0.339391  0  3.431082  0  0  -0.361328  0  3.446085  0  -0.754998  0  -0.289125  -0.324208  0  3.420327  0
N  N104  1  0.20964184  0.00172333  0.54461088  1  0  -0.708285  0  3.132798  0  0  -0.673206  0  3.364755  0  0  -0.693743  0  3.362154  0  -1.31491  0  -0.590425  -0.658758  0  3.366333  0
N  N105  1  0.70964143  0.49827652  0.45538909  1  0  -0.708397  0  3.133002  0  0  -0.673386  0  3.364915  0  0  -0.69392  0  3.362306  0  -1.314919  0  -0.590454  -0.658939  0  3.366496  0
N  N106  1  0.79035619  0.99827732  0.45538806  1  0  -0.708252  0  3.132802  0  0  -0.673151  0  3.364759  0  0  -0.693687  0  3.362158  0  -1.314881  0  -0.590402  -0.658703  0  3.366335  0
N  N107  1  0.29036123  0.50172601  0.54460783  1  0  -0.708407  0  3.132539  0  0  -0.673331  0  3.364526  0  0  -0.693865  0  3.361922  0  -1.314473  0  -0.590478  -0.658884  0  3.366105  0
N  N108  1  0.77651795  0.43643166  0.92201269  1  0  -0.702153  0  3.117016  0  0  -0.667163  0  3.349459  0  0  -0.687437  0  3.346135  0  -1.305946  0  -0.584239  -0.65292  0  3.35152  0
N  N109  1  0.27652299  0.06356819  0.07797972  1  0  -0.702208  0  3.116836  0  0  -0.667218  0  3.349298  0  0  -0.687488  0  3.345986  0  -1.304345  0  -0.584286  -0.652976  0  3.351355  0
N  N110  1  0.22348123  0.56356804  0.07798377  1  0  -0.702228  0  3.116914  0  0  -0.667269  0  3.349361  0  0  -0.687537  0  3.346043  0  -1.30505  0  -0.584311  -0.653027  0  3.351421  0
N  N111  1  0.72348082  0.93643340  0.92201531  1  0  -0.702181  0  3.117108  0  0  -0.667204  0  3.349558  0  0  -0.687478  0  3.34624  0  -1.304674  0  -0.584257  -0.652963  0  3.351616  0
Cl  Cl112  1  0.45400593  0.21019083  0.48237747  1  0  -0.571999  0  0.875759  0  0  -0.499134  0  1.132834  0  0  -0.516826  0  1.112336  0  -0.626984  0  -0.319178  -0.486523  0  1.146915  0
Cl  Cl113  1  0.95401131  0.28980713  0.51761871  1  0  -0.571987  0  0.875829  0  0  -0.499106  0  1.132905  0  0  -0.516795  0  1.112409  0  -0.627094  0  -0.319162  -0.486494  0  1.146986  0
Cl  Cl114  1  0.54599325  0.78980982  0.51762264  1  0  -0.57199  0  0.875769  0  0  -0.499123  0  1.132841  0  0  -0.516817  0  1.11235  0  -0.626996  0  -0.319159  -0.486512  0  1.146923  0
Cl  Cl115  1  0.04599250  0.71019162  0.48237876  1  0  -0.572017  0  0.875769  0  0  -0.499142  0  1.132836  0  0  -0.516832  0  1.11234  0  -0.627014  0  -0.319176  -0.486531  0  1.146918  0
Cl  Cl116  1  0.50455257  0.20828779  0.97467291  1  0  -0.581848  0  0.842073  0  0  -0.501794  0  1.087699  0  0  -0.519086  0  1.066486  0  -0.646983  0  -0.321746  -0.489422  0  1.102195  0
Cl  Cl117  1  0.00455414  0.29171773  0.02532742  1  0  -0.58185  0  0.842017  0  0  -0.501823  0  1.087643  0  0  -0.519113  0  1.066433  0  -0.646997  0  -0.321755  -0.489454  0  1.102137  0
Cl  Cl118  1  0.49544893  0.79171191  0.02532646  1  0  -0.581841  0  0.842087  0  0  -0.50179  0  1.087715  0  0  -0.519082  0  1.066506  0  -0.646997  0  -0.321733  -0.489417  0  1.102209  0
Cl  Cl119  1  0.99544736  0.70828386  0.97467342  1  0  -0.581857  0  0.842049  0  0  -0.501829  0  1.087682  0  0  -0.519115  0  1.066476  0  -0.647024  0  -0.321762  -0.489457  0  1.102177  0
