# generated using pymatgen
data_Gd2H14C18S3O16
_symmetry_space_group_name_H-M   'P 1'
_cell_length_a   5.81400117
_cell_length_b   12.91021386
_cell_length_c   15.75532223
_cell_angle_alpha   81.60000655
_cell_angle_beta   79.39610373
_cell_angle_gamma   76.99474996
_symmetry_Int_Tables_number   1
_chemical_formula_structural   Gd2H14C18S3O16
_chemical_formula_sum   'Gd4 H28 C36 S6 O32'
_cell_volume   1125.79822928
_cell_formula_units_Z   2
loop_
 _symmetry_equiv_pos_site_id
 _symmetry_equiv_pos_as_xyz
  1  'x, y, z'
loop_
 _atom_site_type_symbol
 _atom_site_label
 _atom_site_symmetry_multiplicity
 _atom_site_fract_x
 _atom_site_fract_y
 _atom_site_fract_z
 _atom_site_occupancy
 _atom_site_hle17_bader_spin_density
 _atom_site_hle17_ddec_charge
 _atom_site_hle17_ddec_spin_density
 _atom_site_hle17_ddec_sum_bond_order
 _atom_site_hle17_magmom
 _atom_site_hse06_10hf_bader_spin_density
 _atom_site_hse06_10hf_ddec_charge
 _atom_site_hse06_10hf_ddec_spin_density
 _atom_site_hse06_10hf_ddec_sum_bond_order
 _atom_site_hse06_10hf_magmom
 _atom_site_hse06_bader_spin_density
 _atom_site_hse06_ddec_charge
 _atom_site_hse06_ddec_spin_density
 _atom_site_hse06_ddec_sum_bond_order
 _atom_site_hse06_magmom
 _atom_site_pbe_bader_spin_density
 _atom_site_pbe_cm5_charge
 _atom_site_pbe_ddec_charge
 _atom_site_pbe_ddec_spin_density
 _atom_site_pbe_ddec_sum_bond_order
 _atom_site_pbe_magmom
Gd  Gd0  1  0.52799948  0.15238528  0.11010605  1  0  2.224114  0  1.761582  0  0  2.140657  0  2.111047  0  0  2.190349  0  2.059557  0  0  1.467795  2.098695  0  2.158058  0
Gd  Gd1  1  0.79081142  0.34776214  0.38993664  1  0  2.222889  0  1.763815  0  0  2.140621  0  2.11157  0  0  2.189891  0  2.060778  0  0  1.468147  2.099145  0  2.157822  0
Gd  Gd2  1  0.47199641  0.84761581  0.88989424  1  0  2.224092  0  1.761621  0  0  2.140662  0  2.111037  0  0  2.190365  0  2.059535  0  0  1.46781  2.098699  0  2.158059  0
Gd  Gd3  1  0.20918546  0.65223895  0.61006441  1  0  2.222849  0  1.763825  0  0  2.140523  0  2.111658  0  0  2.189792  0  2.060874  0  0  1.468098  2.099046  0  2.1579  0
H  H4  1  0.36894027  0.51079730  0.81338621  1  0  0.134485  0  0.960892  0  0  0.144045  0  1.020359  0  0  0.147599  0  1.017987  0  0  0.110938  0.141449  0  1.022138  0
H  H5  1  0.69315298  0.98868816  0.68661244  1  0  0.135018  0  0.962371  0  0  0.144279  0  1.02196  0  0  0.147815  0  1.019625  0  0  0.110854  0.141684  0  1.023727  0
H  H6  1  0.63105336  0.48920542  0.18661723  1  0  0.134454  0  0.961034  0  0  0.144036  0  1.020461  0  0  0.147586  0  1.018095  0  0  0.110969  0.141443  0  1.022237  0
H  H7  1  0.30684480  0.01131291  0.31338595  1  0  0.134977  0  0.962348  0  0  0.144199  0  1.021993  0  0  0.147733  0  1.019661  0  0  0.11084  0.141607  0  1.023761  0
H  H8  1  0.44576648  0.32454526  0.91253122  1  0  0.109274  0  0.954415  0  0  0.115046  0  1.025638  0  0  0.118521  0  1.022533  0  0  0.10795  0.112674  0  1.027652  0
H  H9  1  0.68355474  0.17492786  0.58757334  1  0  0.110128  0  0.954548  0  0  0.115823  0  1.025842  0  0  0.119296  0  1.022722  0  0  0.108399  0.113453  0  1.027864  0
H  H10  1  0.55423003  0.67545583  0.08746845  1  0  0.109231  0  0.954417  0  0  0.115052  0  1.025545  0  0  0.118527  0  1.022442  0  0  0.107951  0.112681  0  1.027551  0
H  H11  1  0.31645091  0.82506999  0.41242241  1  0  0.110111  0  0.954594  0  0  0.115831  0  1.025839  0  0  0.119303  0  1.022722  0  0  0.108412  0.113464  0  1.027859  0
H  H12  1  0.25805601  0.84703177  0.20578509  1  0  0.122188  0  0.964543  0  0  0.129023  0  1.030138  0  0  0.132983  0  1.026923  0  0  0.107297  0.126117  0  1.032564  0
H  H13  1  0.31080056  0.65309141  0.29424235  1  0  0.122151  0  0.964557  0  0  0.128931  0  1.03028  0  0  0.132792  0  1.027159  0  0  0.107153  0.126072  0  1.032652  0
H  H14  1  0.74193411  0.15297177  0.79422144  1  0  0.122051  0  0.964442  0  0  0.128921  0  1.030037  0  0  0.132882  0  1.026824  0  0  0.107227  0.126017  0  1.032459  0
H  H15  1  0.68920304  0.34691289  0.70575898  1  0  0.12218  0  0.964524  0  0  0.128967  0  1.030217  0  0  0.132817  0  1.027131  0  0  0.107155  0.126115  0  1.032585  0
H  H16  1  0.82900520  0.04372557  0.94497993  1  0  0.451874  0  0.832129  0  0  0.426304  0  0.884801  0  0  0.43586  0  0.871047  0  0  0.31258  0.419483  0  0.894587  0
H  H17  1  0.81775140  0.45641454  0.55524541  1  0  0.453195  0  0.830522  0  0  0.427566  0  0.883353  0  0  0.437144  0  0.869548  0  0  0.31286  0.420727  0  0.893176  0
H  H18  1  0.17099648  0.95627631  0.05501937  1  0  0.451839  0  0.832178  0  0  0.426282  0  0.884833  0  0  0.435836  0  0.871083  0  0  0.312568  0.41946  0  0.89462  0
H  H19  1  0.18224993  0.54358896  0.44475513  1  0  0.453238  0  0.830467  0  0  0.427603  0  0.883305  0  0  0.437182  0  0.8695  0  0  0.312882  0.420765  0  0.893126  0
H  H20  1  0.55813278  0.08096947  0.93500099  1  0  0.445153  0  0.847895  0  0  0.415727  0  0.910361  0  0  0.425724  0  0.895494  0  0  0.309928  0.40869  0  0.920776  0
H  H21  1  0.57430497  0.41907239  0.56496013  1  0  0.445071  0  0.848056  0  0  0.415736  0  0.910378  0  0  0.425733  0  0.895511  0  0  0.31005  0.408708  0  0.920785  0
H  H22  1  0.44186710  0.91903003  0.06499969  1  0  0.445089  0  0.847976  0  0  0.415643  0  0.910479  0  0  0.425642  0  0.895607  0  0  0.309897  0.40861  0  0.920887  0
H  H23  1  0.42569373  0.58093191  0.43504085  1  0  0.445103  0  0.848013  0  0  0.415765  0  0.910337  0  0  0.425763  0  0.895467  0  0  0.310066  0.408738  0  0.92074  0
H  H24  1  0.07836813  0.18581758  0.23291693  1  0  0.442645  0  0.845481  0  0  0.411118  0  0.915441  0  0  0.421765  0  0.89981  0  0  0.31268  0.403552  0  0.926502  0
H  H25  1  0.49742957  0.31412790  0.26709036  1  0  0.442117  0  0.846044  0  0  0.410499  0  0.91646  0  0  0.421165  0  0.900751  0  0  0.312166  0.402938  0  0.927535  0
H  H26  1  0.92162631  0.81418032  0.76708482  1  0  0.442654  0  0.845466  0  0  0.411102  0  0.915466  0  0  0.421749  0  0.899836  0  0  0.312665  0.403536  0  0.926531  0
H  H27  1  0.50256867  0.68587240  0.73291151  1  0  0.44211  0  0.846033  0  0  0.410483  0  0.916481  0  0  0.42115  0  0.90077  0  0  0.312162  0.402922  0  0.927557  0
H  H28  1  0.06102826  0.08905368  0.18247623  1  0  0.440826  0  0.853025  0  0  0.409107  0  0.918741  0  0  0.419405  0  0.90352  0  0  0.309298  0.401851  0  0.929413  0
H  H29  1  0.33273191  0.41088956  0.31744526  1  0  0.441473  0  0.851925  0  0  0.409706  0  0.917747  0  0  0.419983  0  0.902561  0  0  0.309717  0.402461  0  0.928404  0
H  H30  1  0.93897088  0.91094660  0.81752299  1  0  0.440877  0  0.852954  0  0  0.409144  0  0.918691  0  0  0.419444  0  0.903466  0  0  0.309311  0.401888  0  0.929365  0
H  H31  1  0.66726388  0.58911312  0.68255425  1  0  0.441487  0  0.851906  0  0  0.40972  0  0.917727  0  0  0.419997  0  0.902539  0  0  0.309713  0.402473  0  0.928386  0
C  C32  1  0.99079597  0.52221305  0.86331218  1  0  -0.164917  0  3.700132  0  0  -0.149057  0  3.969404  0  0  -0.156708  0  3.989988  0  0  -0.022651  -0.144075  0  3.955716  0
C  C33  1  0.37572473  0.97770910  0.63679017  1  0  -0.164993  0  3.700309  0  0  -0.149832  0  3.97049  0  0  -0.157433  0  3.990992  0  0  -0.023093  -0.1448  0  3.956699  0
C  C34  1  0.00919619  0.47778404  0.13668877  1  0  -0.164941  0  3.700131  0  0  -0.149116  0  3.969417  0  0  -0.156732  0  3.989958  0  0  -0.022661  -0.144142  0  3.955736  0
C  C35  1  0.62427794  0.02229117  0.36320726  1  0  -0.165066  0  3.70038  0  0  -0.14985  0  3.970497  0  0  -0.15745  0  3.990995  0  0  -0.0231  -0.144815  0  3.956698  0
C  C36  1  0.23165569  0.47392483  0.85519986  1  0  -0.080135  0  3.735718  0  0  -0.116415  0  4.008479  0  0  -0.115991  0  4.026411  0  0  -0.098378  -0.11644  0  3.99614  0
C  C37  1  0.56069420  0.02573922  0.64488273  1  0  -0.081019  0  3.736986  0  0  -0.116565  0  4.009123  0  0  -0.116188  0  4.027102  0  0  -0.098403  -0.116567  0  3.996693  0
C  C38  1  0.76833612  0.52607306  0.14480102  1  0  -0.080094  0  3.735722  0  0  -0.116404  0  4.00852  0  0  -0.115991  0  4.026448  0  0  -0.09842  -0.11643  0  3.996174  0
C  C39  1  0.43931382  0.97425866  0.35511592  1  0  -0.080846  0  3.736974  0  0  -0.116376  0  4.009116  0  0  -0.115999  0  4.027098  0  0  -0.098343  -0.116384  0  3.99669  0
C  C40  1  0.27124057  0.37575341  0.90779113  1  0  -0.09484  0  3.815519  0  0  -0.130819  0  4.093982  0  0  -0.129485  0  4.111478  0  0  -0.098211  -0.131384  0  4.081641  0
C  C41  1  0.55505111  0.12394926  0.59234342  1  0  -0.096824  0  3.814702  0  0  -0.132501  0  4.093291  0  0  -0.13119  0  4.110846  0  0  -0.099009  -0.133042  0  4.080872  0
C  C42  1  0.72875640  0.62424528  0.09220939  1  0  -0.094819  0  3.815384  0  0  -0.130806  0  4.093852  0  0  -0.129478  0  4.111359  0  0  -0.098195  -0.13135  0  4.081517  0
C  C43  1  0.44495554  0.87604779  0.40765178  1  0  -0.096886  0  3.814669  0  0  -0.132576  0  4.093263  0  0  -0.131265  0  4.110818  0  0  -0.099024  -0.13312  0  4.080841  0
C  C44  1  0.06095039  0.34995325  0.95458863  1  0  -0.176611  0  3.735335  0  0  -0.158818  0  3.999957  0  0  -0.166706  0  4.020816  0  0  -0.024626  -0.153565  0  3.985898  0
C  C45  1  0.36553901  0.15002212  0.54557309  1  0  -0.174448  0  3.732475  0  0  -0.157275  0  3.997348  0  0  -0.165164  0  4.01821  0  0  -0.024014  -0.152048  0  3.98331  0
C  C46  1  0.93904684  0.65004543  0.04540987  1  0  -0.17661  0  3.735299  0  0  -0.158819  0  3.999892  0  0  -0.166693  0  4.020724  0  0  -0.024659  -0.153639  0  3.98592  0
C  C47  1  0.63447026  0.84997413  0.45442166  1  0  -0.174444  0  3.732321  0  0  -0.15728  0  3.997211  0  0  -0.165169  0  4.018074  0  0  -0.02409  -0.152048  0  3.98317  0
C  C48  1  0.03461846  0.25324435  0.01498764  1  0  0.747756  0  3.869166  0  0  0.70013  0  4.16237  0  0  0.736497  0  4.150219  0  0  0.232388  0.675327  0  4.169465  0
C  C49  1  0.30330137  0.24676792  0.48516906  1  0  0.744299  0  3.870676  0  0  0.697519  0  4.163129  0  0  0.733859  0  4.151043  0  0  0.231636  0.672779  0  4.170146  0
C  C50  1  0.96538666  0.74675273  0.98501085  1  0  0.747583  0  3.869283  0  0  0.700005  0  4.162426  0  0  0.736366  0  4.150282  0  0  0.232357  0.675227  0  4.169519  0
C  C51  1  0.69669750  0.75323076  0.51482956  1  0  0.744283  0  3.870803  0  0  0.697505  0  4.163268  0  0  0.733844  0  4.151183  0  0  0.23165  0.672758  0  4.170296  0
C  C52  1  0.87980935  0.62775345  0.82325493  1  0  0.73185  0  3.862118  0  0  0.686625  0  4.149862  0  0  0.722824  0  4.137899  0  0  0.232593  0.661907  0  4.157062  0
C  C53  1  0.33024886  0.87216849  0.67676012  1  0  0.732439  0  3.862692  0  0  0.687869  0  4.149433  0  0  0.724064  0  4.137375  0  0  0.233235  0.663144  0  4.156635  0
C  C54  1  0.12018535  0.37224524  0.17674611  1  0  0.731782  0  3.862168  0  0  0.686638  0  4.149793  0  0  0.72282  0  4.13784  0  0  0.232618  0.661922  0  4.156983  0
C  C55  1  0.66975292  0.12783180  0.32323997  1  0  0.732436  0  3.862729  0  0  0.687823  0  4.149501  0  0  0.724019  0  4.137444  0  0  0.233212  0.663099  0  4.156696  0
C  C56  1  0.88620150  0.83886793  0.20805936  1  0  -0.144303  0  3.706447  0  0  -0.129549  0  3.975221  0  0  -0.136755  0  3.99596  0  0  -0.020137  -0.124895  0  3.961421  0
C  C57  1  0.93298956  0.66130222  0.29195465  1  0  -0.144744  0  3.70437  0  0  -0.130146  0  3.973413  0  0  -0.137494  0  3.994344  0  0  -0.02018  -0.125489  0  3.95962  0
C  C58  1  0.11379465  0.16113396  0.79194022  1  0  -0.144424  0  3.706839  0  0  -0.1297  0  3.975627  0  0  -0.136906  0  3.996363  0  0  -0.020186  -0.125049  0  3.961835  0
C  C59  1  0.06701638  0.33869805  0.70804302  1  0  -0.144818  0  3.704453  0  0  -0.130243  0  3.97354  0  0  -0.137589  0  3.994465  0  0  -0.020206  -0.12558  0  3.959742  0
C  C60  1  0.11817858  0.80102917  0.22627249  1  0  -0.07023  0  3.701584  0  0  -0.104452  0  3.973104  0  0  -0.103764  0  3.990537  0  0  -0.09234  -0.104735  0  3.96122  0
C  C61  1  0.14536167  0.69911042  0.27376006  1  0  -0.071009  0  3.700663  0  0  -0.10513  0  3.972223  0  0  -0.104318  0  3.98982  0  0  -0.092771  -0.105462  0  3.960295  0
C  C62  1  0.88183472  0.19897673  0.77372876  1  0  -0.070088  0  3.702014  0  0  -0.104326  0  3.973492  0  0  -0.103642  0  3.990937  0  0  -0.092314  -0.10461  0  3.961618  0
C  C63  1  0.85464383  0.30088829  0.72624243  1  0  -0.070992  0  3.701018  0  0  -0.105098  0  3.972576  0  0  -0.10429  0  3.990168  0  0  -0.092709  -0.10544  0  3.960652  0
C  C64  1  0.78312179  0.94014439  0.16107035  1  0  0.663444  0  3.931526  0  0  0.60987  0  4.233928  0  0  0.644488  0  4.225179  0  0  0.203175  0.586534  0  4.238547  0
C  C65  1  0.88410299  0.56002576  0.33887304  1  0  0.664151  0  3.929407  0  0  0.610726  0  4.231846  0  0  0.645386  0  4.223098  0  0  0.204113  0.587392  0  4.23652  0
C  C66  1  0.21688036  0.05985590  0.83893113  1  0  0.663458  0  3.931395  0  0  0.609909  0  4.233762  0  0  0.644533  0  4.225006  0  0  0.203213  0.586566  0  4.238391  0
C  C67  1  0.11590494  0.43997371  0.66112482  1  0  0.66429  0  3.929259  0  0  0.610858  0  4.231717  0  0  0.64552  0  4.222959  0  0  0.204121  0.587526  0  4.236392  0
S  S68  1  0.81568400  0.44780951  0.93599928  1  0  0.217092  0  2.654318  0  0  0.221134  0  2.977001  0  0  0.219824  0  2.988943  0  0  0.133333  0.221534  0  2.969341  0
S  S69  1  0.19895750  0.05238043  0.56411135  1  0  0.217263  0  2.65285  0  0  0.221521  0  2.976003  0  0  0.22021  0  2.987903  0  0  0.133587  0.221901  0  2.968312  0
S  S70  1  0.18431079  0.55218678  0.06400123  1  0  0.217122  0  2.654324  0  0  0.221167  0  2.976993  0  0  0.219841  0  2.98892  0  0  0.13337  0.221595  0  2.969351  0
S  S71  1  0.80104552  0.94761823  0.43588484  1  0  0.217229  0  2.652859  0  0  0.221476  0  2.975998  0  0  0.220165  0  2.9879  0  0  0.133604  0.221855  0  2.968305  0
S  S72  1  0.70592478  0.75010985  0.24998958  1  0  0.239069  0  2.785008  0  0  0.250667  0  3.116434  0  0  0.249085  0  3.129703  0  0  0.15476  0.251204  0  3.108102  0
S  S73  1  0.29407970  0.24988642  0.75000823  1  0  0.239098  0  2.78514  0  0  0.250718  0  3.116555  0  0  0.24914  0  3.129823  0  0  0.154786  0.251264  0  3.108223  0
O  O74  1  0.82484219  0.24565152  0.05327230  1  0  -0.731851  0  2.008558  0  0  -0.691095  0  2.265596  0  0  -0.714876  0  2.250339  0  0  -0.411437  -0.673444  0  2.275544  0
O  O75  1  0.12409347  0.25460232  0.44685696  1  0  -0.730004  0  2.012241  0  0  -0.689866  0  2.2691  0  0  -0.713566  0  2.253871  0  0  -0.41068  -0.672276  0  2.278909  0
O  O76  1  0.17514598  0.75434717  0.94672827  1  0  -0.731707  0  2.008709  0  0  -0.690989  0  2.265709  0  0  -0.714767  0  2.250448  0  0  -0.411416  -0.673341  0  2.275652  0
O  O77  1  0.87589988  0.74539798  0.55314456  1  0  -0.72999  0  2.012251  0  0  -0.689835  0  2.269119  0  0  -0.713533  0  2.253891  0  0  -0.410685  -0.672247  0  2.278931  0
O  O78  1  0.22396915  0.18326210  0.02534693  1  0  -0.730045  0  2.014841  0  0  -0.679663  0  2.264617  0  0  -0.705785  0  2.252912  0  0  -0.403781  -0.660607  0  2.27208  0
O  O79  1  0.43357226  0.31658120  0.47481405  1  0  -0.728544  0  2.012574  0  0  -0.678617  0  2.262095  0  0  -0.70467  0  2.250441  0  0  -0.403816  -0.659673  0  2.269523  0
O  O80  1  0.77602691  0.81673499  0.97465362  1  0  -0.730022  0  2.014834  0  0  -0.679656  0  2.264588  0  0  -0.705781  0  2.252885  0  0  -0.403776  -0.660598  0  2.272043  0
O  O81  1  0.56642617  0.68342149  0.52518633  1  0  -0.72852  0  2.012704  0  0  -0.678579  0  2.262175  0  0  -0.70463  0  2.250526  0  0  -0.403786  -0.659634  0  2.269603  0
O  O82  1  0.68275768  0.67502668  0.86364290  1  0  -0.721529  0  2.036136  0  0  -0.678512  0  2.286466  0  0  -0.703017  0  2.273846  0  0  -0.395046  -0.660487  0  2.294501  0
O  O83  1  0.22077448  0.82488962  0.63632695  1  0  -0.721307  0  2.037467  0  0  -0.678648  0  2.287256  0  0  -0.703144  0  2.27478  0  0  -0.395197  -0.660762  0  2.295382  0
O  O84  1  0.31723549  0.32497123  0.13636012  1  0  -0.721474  0  2.036324  0  0  -0.678478  0  2.286631  0  0  -0.702993  0  2.274044  0  0  -0.395026  -0.660453  0  2.294672  0
O  O85  1  0.77922376  0.17510987  0.36367361  1  0  -0.721292  0  2.037491  0  0  -0.678639  0  2.287316  0  0  -0.703137  0  2.274838  0  0  -0.395177  -0.660754  0  2.295448  0
O  O86  1  0.98447609  0.66766492  0.75101025  1  0  -0.737204  0  2.038753  0  0  -0.686422  0  2.283193  0  0  -0.712089  0  2.270464  0  0  -0.384163  -0.667505  0  2.29121  0
O  O87  1  0.40294922  0.83217170  0.74896607  1  0  -0.738544  0  2.038151  0  0  -0.687524  0  2.282287  0  0  -0.713292  0  2.269466  0  0  -0.38406  -0.668546  0  2.290472  0
O  O88  1  0.01551771  0.33233298  0.24899213  1  0  -0.737202  0  2.038533  0  0  -0.686468  0  2.282957  0  0  -0.712129  0  2.27023  0  0  -0.384227  -0.667581  0  2.291055  0
O  O89  1  0.59704984  0.16783098  0.25103367  1  0  -0.73855  0  2.038113  0  0  -0.687513  0  2.282252  0  0  -0.713283  0  2.269436  0  0  -0.384075  -0.668531  0  2.290428  0
O  O90  1  0.56270404  0.95851034  0.15143161  1  0  -0.693934  0  2.027983  0  0  -0.640627  0  2.268526  0  0  -0.665054  0  2.257402  0  0  -0.361491  -0.623067  0  2.27558  0
O  O91  1  0.67242586  0.54168669  0.34849732  1  0  -0.693815  0  2.027745  0  0  -0.640532  0  2.268086  0  0  -0.66493  0  2.25694  0  0  -0.360769  -0.623014  0  2.275075  0
O  O92  1  0.43730092  0.04149316  0.84857055  1  0  -0.693858  0  2.027768  0  0  -0.640629  0  2.268361  0  0  -0.665056  0  2.257235  0  0  -0.361474  -0.623062  0  2.275418  0
O  O93  1  0.32758371  0.45831359  0.65150197  1  0  -0.69388  0  2.027579  0  0  -0.640585  0  2.267919  0  0  -0.66497  0  2.256769  0  0  -0.360767  -0.623086  0  2.27495  0
O  O94  1  0.90879511  0.01171220  0.13156384  1  0  -0.69857  0  2.028893  0  0  -0.638478  0  2.253452  0  0  -0.663014  0  2.242538  0  0  -0.337234  -0.620906  0  2.26039  0
O  O95  1  0.05184307  0.48838265  0.36838251  1  0  -0.699071  0  2.0287  0  0  -0.639666  0  2.253983  0  0  -0.664057  0  2.242803  0  0  -0.339122  -0.622118  0  2.260887  0
O  O96  1  0.09121256  0.98828809  0.86843735  1  0  -0.698617  0  2.028999  0  0  -0.638437  0  2.253443  0  0  -0.662995  0  2.242548  0  0  -0.337244  -0.620861  0  2.260388  0
O  O97  1  0.94817138  0.51161601  0.63161451  1  0  -0.699094  0  2.028835  0  0  -0.639712  0  2.254162  0  0  -0.664105  0  2.242985  0  0  -0.339137  -0.622152  0  2.261035  0
O  O98  1  0.67488419  0.08444366  0.97210129  1  0  -0.915567  0  1.885978  0  0  -0.880502  0  2.080626  0  0  -0.89872  0  2.049539  0  0  -0.640404  -0.866593  0  2.102345  0
O  O99  1  0.73157131  0.41577161  0.52793601  1  0  -0.916945  0  1.884655  0  0  -0.881791  0  2.078697  0  0  -0.899981  0  2.047617  0  0  -0.640945  -0.867945  0  2.100396  0
O  O100  1  0.32511342  0.91555584  0.02789991  1  0  -0.915485  0  1.886053  0  0  -0.880414  0  2.080665  0  0  -0.898641  0  2.049598  0  0  -0.640371  -0.866511  0  2.102382  0
O  O101  1  0.26842747  0.58423028  0.47206444  1  0  -0.916977  0  1.884567  0  0  -0.881835  0  2.078661  0  0  -0.900029  0  2.04758  0  0  -0.640953  -0.867987  0  2.100361  0
O  O102  1  0.16958351  0.11993389  0.20802591  1  0  -0.889446  0  1.918785  0  0  -0.848855  0  2.11344  0  0  -0.867425  0  2.081834  0  0  -0.627408  -0.834942  0  2.135626  0
O  O103  1  0.49770934  0.38006054  0.29200085  1  0  -0.889466  0  1.917982  0  0  -0.848842  0  2.112298  0  0  -0.867374  0  2.080848  0  0  -0.627264  -0.834964  0  2.13432  0
O  O104  1  0.83041310  0.88006560  0.79197454  1  0  -0.889488  0  1.918716  0  0  -0.848895  0  2.113431  0  0  -0.867465  0  2.081821  0  0  -0.627398  -0.834987  0  2.13563  0
O  O105  1  0.50229017  0.61993975  0.70799975  1  0  -0.889487  0  1.918005  0  0  -0.848822  0  2.112296  0  0  -0.867368  0  2.080882  0  0  -0.627235  -0.83495  0  2.134315  0
