# generated using pymatgen
data_ZnNiH12(C7N4)2
_symmetry_space_group_name_H-M   'P 1'
_cell_length_a   7.33447906
_cell_length_b   7.07393615
_cell_length_c   8.56172803
_cell_angle_alpha   114.53048318
_cell_angle_beta   103.33474024
_cell_angle_gamma   90.10094707
_symmetry_Int_Tables_number   1
_chemical_formula_structural   ZnNiH12(C7N4)2
_chemical_formula_sum   'Zn1 Ni1 H12 C14 N8'
_cell_volume   390.83035546
_cell_formula_units_Z   1
loop_
 _symmetry_equiv_pos_site_id
 _symmetry_equiv_pos_as_xyz
  1  'x, y, z'
loop_
 _atom_site_type_symbol
 _atom_site_label
 _atom_site_symmetry_multiplicity
 _atom_site_fract_x
 _atom_site_fract_y
 _atom_site_fract_z
 _atom_site_occupancy
 _atom_site_pbe_bader_spin_density
 _atom_site_pbe_cm5_charge
 _atom_site_pbe_ddec_charge
 _atom_site_pbe_ddec_spin_density
 _atom_site_pbe_ddec_sum_bond_order
 _atom_site_pbe_magmom
Zn  Zn0  1  0.50052246  0.50535796  0.00048230  1  0  0.733623  0.752106  0  2.538881  0
Ni  Ni1  1  0.00020713  0.00699487  0.00000144  1  0  0.404821  0.142049  0  3.865534  0
H  H2  1  0.19483736  0.59341479  0.21183630  1  0  0.11477  0.097926  0  1.002248  0
H  H3  1  0.80603712  0.39182101  0.78758189  1  0  0.114869  0.098325  0  1.000424  0
H  H4  1  0.48661666  0.89262454  0.76886942  1  0  0.110086  0.12751  0  0.987643  0
H  H5  1  0.51145948  0.12535563  0.23090526  1  0  0.110469  0.127475  0  0.987658  0
H  H6  1  0.78786949  0.87073410  0.67624753  1  0  0.093596  0.084186  0  1.060624  0
H  H7  1  0.21062504  0.18390238  0.32461180  1  0  0.0942  0.084013  0  1.061546  0
H  H8  1  0.77577501  0.70823106  0.34980222  1  0  0.105961  0.071385  0  1.055851  0
H  H9  1  0.22465288  0.34776142  0.65228031  1  0  0.104873  0.067262  0  1.060957  0
H  H10  1  0.15153888  0.77639956  0.66713760  1  0  0.290545  0.282658  0  1.003125  0
H  H11  1  0.84895303  0.12334518  0.33154054  1  0  0.291002  0.282707  0  1.00233  0
H  H12  1  0.04101723  0.63495674  0.45196038  1  0  0.300199  0.293922  0  0.961398  0
H  H13  1  0.96066489  0.20073612  0.54689165  1  0  0.300463  0.293769  0  0.96014  0
C  C14  1  0.32341094  0.65600319  0.31914847  1  0  0.032418  -0.030485  0  3.908064  0
C  C15  1  0.67697558  0.34322296  0.68056632  1  0  0.034304  -0.028771  0  3.90572  0
C  C16  1  0.31492663  0.74258648  0.49748412  1  0  0.098611  0.260235  0  4.085623  0
C  C17  1  0.68458617  0.25249855  0.50194700  1  0  0.099114  0.260063  0  4.083965  0
C  C18  1  0.48607649  0.82304768  0.62876357  1  0  -0.076363  -0.132289  0  3.880782  0
C  C19  1  0.51275209  0.19577341  0.37118272  1  0  -0.075903  -0.130519  0  3.882225  0
C  C20  1  0.65320097  0.81014246  0.57677419  1  0  -0.089755  -0.105181  0  4.028491  0
C  C21  1  0.34573664  0.22819549  0.42388802  1  0  -0.090069  -0.106535  0  4.031791  0
C  C22  1  0.64903755  0.71942559  0.39719664  1  0  0.019532  0.03787  0  3.995839  0
C  C23  1  0.35090763  0.31674883  0.60364246  1  0  0.022228  0.042658  0  3.997593  0
C  C24  1  0.83266491  0.84538452  0.03589266  1  0  0.019396  0.025609  0  3.823446  0
C  C25  1  0.16606307  0.80783908  0.96446714  1  0  0.021601  0.028818  0  3.817946  0
C  C26  1  0.16759419  0.16732544  0.96237322  1  0  0.017892  0.026636  0  3.82207  0
C  C27  1  0.83463357  0.20690140  0.03734916  1  0  0.01958  0.02785  0  3.816658  0
N  N28  1  0.48582634  0.64440156  0.27154759  1  0  -0.32467  -0.208163  0  3.626566  0
N  N29  1  0.51468905  0.37324359  0.72883547  1  0  -0.32444  -0.208558  0  3.626124  0
N  N30  1  0.71927895  0.74814164  0.05744128  1  0  -0.343977  -0.33503  0  3.295213  0
N  N31  1  0.27846107  0.68813822  0.94308645  1  0  -0.34504  -0.337416  0  3.287797  0
N  N32  1  0.28107791  0.26518885  0.94162387  1  0  -0.346187  -0.33501  0  3.29928  0
N  N33  1  0.72189988  0.32611156  0.05792545  1  0  -0.347129  -0.335051  0  3.295373  0
N  N34  1  0.14308618  0.75203235  0.53985890  1  0  -0.595155  -0.611517  0  3.31294  0
N  N35  1  0.85634782  0.22601565  0.45886612  1  0  -0.595462  -0.610509  0  3.312344  0
