# generated using pymatgen
data_Mn3H16C20(NO6)2
_symmetry_space_group_name_H-M   'P 1'
_cell_length_a   7.67139120
_cell_length_b   8.83434998
_cell_length_c   9.39945658
_cell_angle_alpha   68.01371618
_cell_angle_beta   84.05945730
_cell_angle_gamma   66.51463957
_symmetry_Int_Tables_number   1
_chemical_formula_structural   Mn3H16C20(NO6)2
_chemical_formula_sum   'Mn3 H16 C20 N2 O12'
_cell_volume   540.97523359
_cell_formula_units_Z   1
loop_
 _symmetry_equiv_pos_site_id
 _symmetry_equiv_pos_as_xyz
  1  'x, y, z'
loop_
 _atom_site_type_symbol
 _atom_site_label
 _atom_site_symmetry_multiplicity
 _atom_site_fract_x
 _atom_site_fract_y
 _atom_site_fract_z
 _atom_site_occupancy
 _atom_site_pbe_cm5_charge
 _atom_site_pbe_ddec_charge
 _atom_site_pbe_ddec_spin_density
 _atom_site_pbe_ddec_sum_bond_order
 _atom_site_pbe_magmom
Mn  Mn0  1  0.49956627  0.00124559  0.49978558  1  0.624694  1.097332  4.566408  2.390743  4.405
Mn  Mn1  1  0.29849838  0.45667789  0.49887772  1  0.614957  0.997577  -4.63204  2.293829  -4.463
Mn  Mn2  1  0.70090172  0.54333364  0.50103315  1  0.615154  0.99875  4.659155  2.284535  4.478
H  H3  1  0.49983132  0.11024034  0.08888162  1  0.108118  0.111253  -0.000565  1.043119  0.0
H  H4  1  0.50051727  0.88960691  0.91093267  1  0.108217  0.111413  -3.8e-05  1.042908  0.0
H  H5  1  0.43782764  0.15679229  0.81381076  1  0.115961  0.077957  -0.000565  1.047338  0.0
H  H6  1  0.56163524  0.84306521  0.18626156  1  0.116156  0.078133  -0.000139  1.046925  0.0
H  H7  1  0.10580893  0.68729771  0.71221533  1  0.120714  0.091129  -0.000231  1.007138  0.0
H  H8  1  0.89323598  0.31246304  0.28822317  1  0.120699  0.091226  0.000315  1.008007  0.0
H  H9  1  0.14938299  0.66161765  0.98380429  1  0.110263  0.119762  -0.000225  0.999508  0.0
H  H10  1  0.85035518  0.33803820  0.01651447  1  0.110565  0.120494  0.000441  0.998793  0.0
H  H11  1  0.89604966  0.04904898  0.33186008  1  0.110019  0.131702  0.000212  0.990437  0.0
H  H12  1  0.10336156  0.95130725  0.66739774  1  0.11034  0.13222  0.000697  0.989817  0.001
H  H13  1  0.83742064  0.00323083  0.18176064  1  0.102504  0.120191  -0.000429  0.984288  0.0
H  H14  1  0.16343604  0.99637172  0.81747441  1  0.102721  0.12028  0.000583  0.984558  0.001
H  H15  1  0.18340997  0.77604328  0.20271951  1  0.10023  0.118972  0.000487  1.030842  0.0
H  H16  1  0.81757751  0.22437723  0.79720205  1  0.100188  0.119286  0.000753  1.031443  0.0
H  H17  1  0.15658076  0.00202014  0.14172293  1  0.097752  0.113368  0.000813  0.984074  0.001
H  H18  1  0.84401174  0.99850096  0.85865981  1  0.0982  0.113934  -0.000611  0.983886  0.0
C  C19  1  0.37155979  0.35550472  0.21909624  1  0.224646  0.582637  0.014781  4.177971  0.013
C  C20  1  0.62922291  0.64420770  0.78080635  1  0.226209  0.585412  0.02871  4.177269  0.024
C  C21  1  0.33099506  0.38311728  0.05633002  1  0.003862  0.012096  -0.003592  3.950316  -0.004
C  C22  1  0.66908322  0.61659626  0.94386520  1  0.004238  0.013232  0.007945  3.948582  0.005
C  C23  1  0.41158678  0.23933845  0.00752503  1  -0.081954  -0.148697  0.003307  3.958571  0.002
C  C24  1  0.58843662  0.76047222  0.99246932  1  -0.081646  -0.148803  0.003646  3.957419  0.003
C  C25  1  0.37912870  0.26532391  0.85631780  1  0.043477  0.08471  -0.003881  3.96776  -0.004
C  C26  1  0.62049859  0.73454969  0.14376566  1  0.044426  0.085329  0.006178  3.965026  0.004
C  C27  1  0.19329472  0.56207745  0.79923238  1  0.059941  0.112366  -0.006403  3.910513  -0.006
C  C28  1  0.80609880  0.43769994  0.20107168  1  0.060507  0.112635  0.004875  3.908906  0.004
C  C29  1  0.21700370  0.54718798  0.94960995  1  -0.075409  -0.140381  0.005713  3.935405  0.004
C  C30  1  0.78272453  0.45251433  0.05067007  1  -0.07482  -0.140649  0.005458  3.934371  0.004
C  C31  1  0.89249594  0.79381212  0.40078615  1  0.239358  0.663258  0.007642  4.060052  0.004
C  C32  1  0.10736853  0.20627543  0.59855378  1  0.239834  0.663091  0.022145  4.058019  0.022
C  C33  1  0.93512849  0.94505153  0.28302688  1  -0.157358  -0.279901  0.000656  3.915865  0.001
C  C34  1  0.06513290  0.05495519  0.71654180  1  -0.157322  -0.279668  6.8e-05  3.915135  0.0
C  C35  1  0.14283047  0.88977925  0.23863084  1  -0.168387  -0.299122  0.003463  3.937316  0.003
C  C36  1  0.85766044  0.11056067  0.76149001  1  -0.168647  -0.300183  0.000395  3.937618  0.0
C  C37  1  0.28223521  0.84583197  0.36640633  1  0.234576  0.657511  0.010707  4.068735  0.01
C  C38  1  0.71758211  0.15445302  0.63420941  1  0.235176  0.658297  0.006806  4.067734  0.006
N  N39  1  0.27425611  0.42428888  0.75197233  1  -0.311483  -0.244453  -0.02455  3.466795  -0.01
N  N40  1  0.72498481  0.57554825  0.24819242  1  -0.311372  -0.243436  0.035988  3.465809  0.021
O  O41  1  0.49949532  0.20753357  0.29672375  1  -0.308538  -0.581758  0.030395  2.388376  0.01
O  O42  1  0.50162016  0.79203659  0.70295153  1  -0.308177  -0.582493  0.041597  2.383552  0.021
O  O43  1  0.27767580  0.48085381  0.26728737  1  -0.300228  -0.542848  -0.024836  2.305758  -0.007
O  O44  1  0.72377020  0.51858264  0.73314414  1  -0.300507  -0.543315  0.053308  2.302177  0.038
O  O45  1  0.02454842  0.65682899  0.48365551  1  -0.286783  -0.543439  -0.024052  2.38839  -0.007
O  O46  1  0.97528053  0.34257664  0.51529822  1  -0.284855  -0.540782  0.042081  2.386663  0.027
O  O47  1  0.71678565  0.81003438  0.41404416  1  -0.308274  -0.611779  0.067849  2.428612  0.033
O  O48  1  0.28304916  0.19069422  0.58553593  1  -0.309416  -0.612691  0.00553  2.431466  0.002
O  O49  1  0.39299926  0.68234082  0.43716256  1  -0.30201  -0.60068  0.005577  2.423614  0.003
O  O50  1  0.60643617  0.31787698  0.56365329  1  -0.301273  -0.600553  0.002558  2.425077  0.006
O  O51  1  0.28401557  0.97513620  0.39339274  1  -0.302409  -0.554818  0.036493  2.269071  0.021
O  O52  1  0.71561190  0.02508182  0.60743879  1  -0.302837  -0.5551  0.038419  2.268825  0.022
