# generated using pymatgen
data_CsH2C5(NO2)3
_symmetry_space_group_name_H-M   'P 1'
_cell_length_a   7.78223487
_cell_length_b   10.31758454
_cell_length_c   12.84261330
_cell_angle_alpha   82.21792778
_cell_angle_beta   72.37337561
_cell_angle_gamma   67.84282536
_symmetry_Int_Tables_number   1
_chemical_formula_structural   CsH2C5(NO2)3
_chemical_formula_sum   'Cs4 H8 C20 N12 O24'
_cell_volume   909.93171478
_cell_formula_units_Z   4
loop_
 _symmetry_equiv_pos_site_id
 _symmetry_equiv_pos_as_xyz
  1  'x, y, z'
loop_
 _atom_site_type_symbol
 _atom_site_label
 _atom_site_symmetry_multiplicity
 _atom_site_fract_x
 _atom_site_fract_y
 _atom_site_fract_z
 _atom_site_occupancy
 _atom_site_hle17_bader_spin_density
 _atom_site_hle17_ddec_charge
 _atom_site_hle17_ddec_spin_density
 _atom_site_hle17_ddec_sum_bond_order
 _atom_site_hle17_magmom
 _atom_site_hse06_10hf_bader_spin_density
 _atom_site_hse06_10hf_ddec_charge
 _atom_site_hse06_10hf_ddec_spin_density
 _atom_site_hse06_10hf_ddec_sum_bond_order
 _atom_site_hse06_10hf_magmom
 _atom_site_hse06_bader_spin_density
 _atom_site_hse06_ddec_charge
 _atom_site_hse06_ddec_spin_density
 _atom_site_hse06_ddec_sum_bond_order
 _atom_site_hse06_magmom
 _atom_site_pbe_bader_spin_density
 _atom_site_pbe_cm5_charge
 _atom_site_pbe_ddec_charge
 _atom_site_pbe_ddec_spin_density
 _atom_site_pbe_ddec_sum_bond_order
 _atom_site_pbe_magmom
Cs  Cs0  1  0.76533625  0.52672660  0.43316446  1  0  0.933263  0  0.608753  0  0  0.870046  0  0.865419  0  0  0.887375  0  0.839004  0  0  0.914387  0.858855  0  0.882763  0
Cs  Cs1  1  0.72503199  0.97332834  0.06690280  1  0  0.933955  0  0.608508  0  0  0.871328  0  0.864656  0  0  0.88861  0  0.838224  0  0  0.914146  0.85808  0  0.883397  0
Cs  Cs2  1  0.23466324  0.47327308  0.56683511  1  0  0.933268  0  0.608754  0  0  0.870051  0  0.865424  0  0  0.88738  0  0.839006  0  0  0.914392  0.858864  0  0.882767  0
Cs  Cs3  1  0.27496938  0.02667134  0.93309624  1  0  0.933956  0  0.608511  0  0  0.871329  0  0.864654  0  0  0.888612  0  0.838227  0  0  0.914159  0.858105  0  0.883389  0
H  H4  1  0.80532614  0.38462454  0.75684317  1  0  0.143718  0  0.948932  0  0  0.14579  0  1.01937  0  0  0.152232  0  1.011405  0  0  0.141786  0.141024  0  1.024942  0
H  H5  1  0.94670105  0.11534603  0.74319744  1  0  0.143815  0  0.948784  0  0  0.145386  0  1.019648  0  0  0.151815  0  1.011699  0  0  0.14149  0.140851  0  1.025102  0
H  H6  1  0.19467368  0.61537513  0.24315743  1  0  0.14371  0  0.94895  0  0  0.145779  0  1.01939  0  0  0.15222  0  1.011425  0  0  0.141776  0.14101  0  1.024963  0
H  H7  1  0.05329876  0.88465364  0.25680316  1  0  0.143861  0  0.948752  0  0  0.145432  0  1.019611  0  0  0.151861  0  1.011661  0  0  0.141506  0.140897  0  1.025063  0
H  H8  1  0.80790721  0.30871754  0.08295941  1  0  0.132916  0  0.958682  0  0  0.132111  0  1.034996  0  0  0.137158  0  1.028278  0  0  0.140313  0.128602  0  1.039758  0
H  H9  1  0.19942317  0.19131770  0.41708864  1  0  0.132061  0  0.959783  0  0  0.131434  0  1.035914  0  0  0.136453  0  1.029177  0  0  0.140187  0.127833  0  1.040501  0
H  H10  1  0.19209287  0.69128318  0.91704039  1  0  0.132918  0  0.958675  0  0  0.13211  0  1.034992  0  0  0.137159  0  1.028271  0  0  0.140311  0.128602  0  1.039756  0
H  H11  1  0.80057503  0.80868303  0.58291169  1  0  0.132056  0  0.959782  0  0  0.131425  0  1.035921  0  0  0.136446  0  1.029183  0  0  0.140184  0.127826  0  1.040504  0
C  C12  1  0.77382009  0.43007533  0.83559416  1  0  -0.001528  0  3.572205  0  0  -0.061562  0  3.847083  0  0  -0.044122  0  3.851186  0  0  0.049687  -0.071239  0  3.843105  0
C  C13  1  0.03935661  0.06990234  0.66444342  1  0  -0.000947  0  3.571946  0  0  -0.060804  0  3.848527  0  0  -0.043545  0  3.852793  0  0  0.048979  -0.071328  0  3.845149  0
C  C14  1  0.22617972  0.56992435  0.16440643  1  0  -0.00154  0  3.572209  0  0  -0.061574  0  3.847069  0  0  -0.044134  0  3.851172  0  0  0.049706  -0.071248  0  3.843083  0
C  C15  1  0.96064320  0.93009734  0.33555718  1  0  -0.001007  0  3.571956  0  0  -0.060862  0  3.848536  0  0  -0.043605  0  3.852806  0  0  0.048957  -0.071386  0  3.845154  0
C  C16  1  0.70201299  0.57331812  0.85089819  1  0  -0.090993  0  3.653028  0  0  -0.098491  0  3.920898  0  0  -0.114366  0  3.943135  0  0  0.068446  -0.089348  0  3.907208  0
C  C17  1  0.12614108  0.92668908  0.64911531  1  0  -0.081152  0  3.662503  0  0  -0.098939  0  3.922826  0  0  -0.114737  0  3.945144  0  0  0.068195  -0.08983  0  3.909229  0
C  C18  1  0.29798734  0.42668051  0.14910243  1  0  -0.090925  0  3.65305  0  0  -0.09839  0  3.92089  0  0  -0.114256  0  3.94311  0  0  0.068466  -0.089247  0  3.907196  0
C  C19  1  0.87385874  0.07331060  0.35088528  1  0  -0.081115  0  3.662476  0  0  -0.098907  0  3.922798  0  0  -0.114705  0  3.945117  0  0  0.068188  -0.089799  0  3.909202  0
C  C20  1  0.67501214  0.63766257  0.95176153  1  0  0.348277  0  3.907388  0  0  0.320284  0  4.191306  0  0  0.343859  0  4.200741  0  0  0.116114  0.305719  0  4.182481  0
C  C21  1  0.26431910  0.86236996  0.54825010  1  0  0.347428  0  3.906463  0  0  0.319756  0  4.192066  0  0  0.343295  0  4.201654  0  0  0.117761  0.305805  0  4.18317  0
C  C22  1  0.32499434  0.36233501  0.04823750  1  0  0.348201  0  3.907383  0  0  0.320171  0  4.191351  0  0  0.343744  0  4.200794  0  0  0.11608  0.305606  0  4.182525  0
C  C23  1  0.73568149  0.13762972  0.45174972  1  0  0.347419  0  3.906548  0  0  0.319747  0  4.192145  0  0  0.343286  0  4.201734  0  0  0.117758  0.305786  0  4.183251  0
C  C24  1  0.72046520  0.52870445  0.03473641  1  0  -0.082759  0  3.656319  0  0  -0.086606  0  3.919289  0  0  -0.10115  0  3.942489  0  0  0.067482  -0.077954  0  3.904879  0
C  C25  1  0.28371837  0.97133639  0.46528341  1  0  -0.071494  0  3.659928  0  0  -0.087675  0  3.918502  0  0  -0.102238  0  3.94165  0  0  0.066409  -0.079255  0  3.903433  0
C  C26  1  0.27953462  0.47129523  0.96526418  1  0  -0.082764  0  3.656274  0  0  -0.086607  0  3.919256  0  0  -0.101149  0  3.942455  0  0  0.067479  -0.077956  0  3.904845  0
C  C27  1  0.71628112  0.02866329  0.53471616  1  0  -0.071505  0  3.659973  0  0  -0.087694  0  3.918541  0  0  -0.102256  0  3.941688  0  0  0.066405  -0.079243  0  3.903431  0
C  C28  1  0.77601510  0.38790918  0.01941363  1  0  -0.00792  0  3.599606  0  0  -0.067457  0  3.879038  0  0  -0.052702  0  3.887296  0  0  0.044197  -0.077163  0  3.873722  0
C  C29  1  0.18310456  0.11214004  0.48062057  1  0  -0.007512  0  3.598138  0  0  -0.06703  0  3.879796  0  0  -0.052147  0  3.888023  0  0  0.044253  -0.075664  0  3.873651  0
C  C30  1  0.22398549  0.61209050  0.98058619  1  0  -0.00792  0  3.599569  0  0  -0.067457  0  3.879  0  0  -0.052702  0  3.887256  0  0  0.044193  -0.077166  0  3.873688  0
C  C31  1  0.81689603  0.88785964  0.51937924  1  0  -0.007483  0  3.598093  0  0  -0.067006  0  3.879764  0  0  -0.052118  0  3.887976  0  0  0.044256  -0.07565  0  3.873616  0
N  N32  1  0.65724137  0.65947266  0.75806635  1  0  0.549298  0  3.881955  0  0  0.57781  0  4.175001  0  0  0.60226  0  4.180651  0  0  0.047686  0.561403  0  4.171377  0
N  N33  1  0.07475420  0.84046724  0.74193148  1  0  0.514093  0  3.940144  0  0  0.579398  0  4.17441  0  0  0.603729  0  4.180104  0  0  0.048208  0.562549  0  4.171178  0
N  N34  1  0.34275734  0.34052702  0.24193400  1  0  0.549291  0  3.881988  0  0  0.577797  0  4.175025  0  0  0.602249  0  4.180679  0  0  0.047698  0.56139  0  4.171401  0
N  N35  1  0.92524478  0.15953349  0.25806807  1  0  0.514045  0  3.940179  0  0  0.57936  0  4.174427  0  0  0.60369  0  4.180124  0  0  0.0482  0.56251  0  4.171193  0
N  N36  1  0.70292792  0.56801512  0.14272754  1  0  0.539719  0  3.892837  0  0  0.570589  0  4.184653  0  0  0.594432  0  4.189991  0  0  0.047279  0.554112  0  4.181629  0
N  N37  1  0.41350302  0.93204265  0.35730143  1  0  0.500738  0  3.945153  0  0  0.570695  0  4.180459  0  0  0.594567  0  4.185751  0  0  0.045817  0.554216  0  4.177539  0
N  N38  1  0.29707216  0.43198560  0.85727226  1  0  0.539695  0  3.892847  0  0  0.57056  0  4.184673  0  0  0.594402  0  4.190012  0  0  0.047227  0.554084  0  4.181652  0
N  N39  1  0.58649706  0.06795807  0.64269837  1  0  0.500777  0  3.944992  0  0  0.570767  0  4.180246  0  0  0.594639  0  4.185535  0  0  0.045884  0.554283  0  4.177329  0
N  N40  1  0.80692074  0.33749122  0.91954828  1  0  0.272699  0  3.736593  0  0  0.331044  0  4.003256  0  0  0.325372  0  4.025005  0  0  -0.137447  0.333986  0  3.98782  0
N  N41  1  0.06380349  0.16251427  0.58050035  1  0  0.272685  0  3.737318  0  0  0.331027  0  4.002962  0  0  0.325369  0  4.024707  0  0  -0.135772  0.333974  0  3.987987  0
N  N42  1  0.19307985  0.66250846  0.08045154  1  0  0.272755  0  3.736621  0  0  0.331095  0  4.003282  0  0  0.325423  0  4.025034  0  0  -0.137407  0.334038  0  3.987844  0
N  N43  1  0.93619632  0.83748541  0.41950024  1  0  0.272664  0  3.737371  0  0  0.331004  0  4.003012  0  0  0.325346  0  4.024759  0  0  -0.135752  0.333951  0  3.988038  0
O  O44  1  0.76000687  0.61634819  0.66456548  1  0  -0.432584  0  1.7869  0  0  -0.410726  0  2.014692  0  0  -0.422783  0  2.007938  0  0  -0.210488  -0.403216  0  2.019949  0
O  O45  1  0.04089533  0.88359641  0.83543944  1  0  -0.419703  0  1.804843  0  0  -0.410933  0  2.01567  0  0  -0.423139  0  2.009011  0  0  -0.210499  -0.403377  0  2.020682  0
O  O46  1  0.23999294  0.38365149  0.33543511  1  0  -0.432605  0  1.786943  0  0  -0.410766  0  2.014742  0  0  -0.422825  0  2.007983  0  0  -0.210519  -0.403257  0  2.019997  0
O  O47  1  0.95910526  0.11640327  0.16456038  1  0  -0.419685  0  1.804877  0  0  -0.410919  0  2.015711  0  0  -0.42312  0  2.00904  0  0  -0.210477  -0.403363  0  2.020722  0
O  O48  1  0.51740219  0.77169939  0.77383941  1  0  -0.376427  0  1.759076  0  0  -0.362741  0  1.980752  0  0  -0.372818  0  1.975584  0  0  -0.174544  -0.355569  0  1.984288  0
O  O49  1  0.06285282  0.72827307  0.72612972  1  0  -0.364227  0  1.776858  0  0  -0.362658  0  1.980242  0  0  -0.372959  0  1.975235  0  0  -0.174429  -0.356524  0  1.984515  0
O  O50  1  0.48259652  0.22830029  0.22616093  1  0  -0.376426  0  1.759047  0  0  -0.362749  0  1.980773  0  0  -0.372811  0  1.975567  0  0  -0.174548  -0.355575  0  1.984308  0
O  O51  1  0.93714590  0.27172661  0.27387063  1  0  -0.364217  0  1.776829  0  0  -0.362646  0  1.980184  0  0  -0.372953  0  1.975193  0  0  -0.174443  -0.356514  0  1.98446  0
O  O52  1  0.62091022  0.76613421  0.96671041  1  0  -0.577764  0  2.016803  0  0  -0.555516  0  2.26022  0  0  -0.577911  0  2.256847  0  0  -0.436657  -0.538261  0  2.260444  0
O  O53  1  0.35366624  0.73390747  0.53331206  1  0  -0.57608  0  2.017241  0  0  -0.554071  0  2.260993  0  0  -0.576551  0  2.257714  0  0  -0.436742  -0.53735  0  2.260899  0
O  O54  1  0.37909645  0.23386233  0.03328763  1  0  -0.577728  0  2.016808  0  0  -0.555454  0  2.260222  0  0  -0.577852  0  2.256853  0  0  -0.436645  -0.5382  0  2.260446  0
O  O55  1  0.64633325  0.26609221  0.46668751  1  0  -0.576063  0  2.017292  0  0  -0.554056  0  2.261039  0  0  -0.576537  0  2.257762  0  0  -0.436726  -0.537336  0  2.26095  0
O  O56  1  0.78393525  0.64914578  0.14836560  1  0  -0.380356  0  1.775609  0  0  -0.36899  0  1.996001  0  0  -0.380125  0  1.991194  0  0  -0.161348  -0.362475  0  2.000204  0
O  O57  1  0.58125595  0.85085675  0.35163213  1  0  -0.367043  0  1.790254  0  0  -0.369926  0  1.994165  0  0  -0.380931  0  1.989281  0  0  -0.160984  -0.363069  0  1.997964  0
O  O58  1  0.21606644  0.35085390  0.85163447  1  0  -0.380346  0  1.775613  0  0  -0.368984  0  1.996006  0  0  -0.380119  0  1.9912  0  0  -0.161324  -0.362471  0  2.000213  0
O  O59  1  0.41874166  0.14914292  0.64836797  1  0  -0.367049  0  1.790204  0  0  -0.369937  0  1.994102  0  0  -0.380941  0  1.989217  0  0  -0.160988  -0.363074  0  1.997886  0
O  O60  1  0.61068546  0.51732085  0.22366086  1  0  -0.376637  0  1.739846  0  0  -0.360911  0  1.948823  0  0  -0.373372  0  1.944834  0  0  -0.152273  -0.353706  0  1.952557  0
O  O61  1  0.35147353  0.98285428  0.27637329  1  0  -0.362245  0  1.756839  0  0  -0.361069  0  1.94996  0  0  -0.373419  0  1.945905  0  0  -0.151048  -0.352785  0  1.952803  0
O  O62  1  0.38931351  0.48267987  0.77633869  1  0  -0.376612  0  1.739843  0  0  -0.360874  0  1.948817  0  0  -0.373335  0  1.944827  0  0  -0.152239  -0.35367  0  1.952552  0
O  O63  1  0.64852901  0.01714749  0.72362621  1  0  -0.362306  0  1.756718  0  0  -0.361157  0  1.94983  0  0  -0.373504  0  1.945774  0  0  -0.151136  -0.352877  0  1.952678  0
O  O64  1  0.86834262  0.20156145  0.90596069  1  0  -0.593815  0  1.698146  0  0  -0.575461  0  1.931971  0  0  -0.603992  0  1.935163  0  0  -0.365147  -0.554402  0  1.928826  0
O  O65  1  0.97584796  0.29842095  0.59415779  1  0  -0.593479  0  1.699651  0  0  -0.57512  0  1.933794  0  0  -0.603523  0  1.936956  0  0  -0.365441  -0.554496  0  1.930086  0
O  O66  1  0.13165907  0.79843822  0.09403938  1  0  -0.593859  0  1.698208  0  0  -0.575504  0  1.932031  0  0  -0.604034  0  1.935222  0  0  -0.365174  -0.554445  0  1.928885  0
O  O67  1  0.02415185  0.70157873  0.40584280  1  0  -0.59346  0  1.699659  0  0  -0.575093  0  1.933795  0  0  -0.603497  0  1.936959  0  0  -0.365447  -0.554468  0  1.930085  0
