# generated using pymatgen
data_Ag2H24C25(N2O)4
_symmetry_space_group_name_H-M   'P 1'
_cell_length_a   11.36497032
_cell_length_b   11.39205627
_cell_length_c   12.14200000
_cell_angle_alpha   85.54947685
_cell_angle_beta   65.57443595
_cell_angle_gamma   77.06243629
_symmetry_Int_Tables_number   1
_chemical_formula_structural   Ag2H24C25(N2O)4
_chemical_formula_sum   'Ag4 H48 C50 N16 O8'
_cell_volume   1394.79782927
_cell_formula_units_Z   2
loop_
 _symmetry_equiv_pos_site_id
 _symmetry_equiv_pos_as_xyz
  1  'x, y, z'
loop_
 _atom_site_type_symbol
 _atom_site_label
 _atom_site_symmetry_multiplicity
 _atom_site_fract_x
 _atom_site_fract_y
 _atom_site_fract_z
 _atom_site_occupancy
 _atom_site_hle17_bader_spin_density
 _atom_site_hle17_ddec_charge
 _atom_site_hle17_ddec_spin_density
 _atom_site_hle17_ddec_sum_bond_order
 _atom_site_hle17_magmom
 _atom_site_hse06_10hf_bader_spin_density
 _atom_site_hse06_10hf_ddec_charge
 _atom_site_hse06_10hf_ddec_spin_density
 _atom_site_hse06_10hf_ddec_sum_bond_order
 _atom_site_hse06_10hf_magmom
 _atom_site_hse06_bader_spin_density
 _atom_site_hse06_ddec_charge
 _atom_site_hse06_ddec_spin_density
 _atom_site_hse06_ddec_sum_bond_order
 _atom_site_hse06_magmom
 _atom_site_pbe_bader_charge
 _atom_site_pbe_bader_spin_density
 _atom_site_pbe_cm5_charge
 _atom_site_pbe_ddec_charge
 _atom_site_pbe_ddec_spin_density
 _atom_site_pbe_ddec_sum_bond_order
 _atom_site_pbe_magmom
Ag  Ag0  1  0.79849280  0.69047881  0.55263780  1  0  0.465004  0  1.643137  0  0  0.32825  0  2.130595  0  0  0.357819  0  2.077789  0  0.54212  0  0.443005  0.308351  0  2.166865  0
Ag  Ag1  1  0.20150304  0.30952101  0.44736382  1  0  0.464967  0  1.643124  0  0  0.328205  0  2.130588  0  0  0.357772  0  2.077784  0  0.54213  0  0.442973  0.308305  0  2.16686  0
Ag  Ag2  1  0.48895366  0.19899053  0.34309141  1  0  0.462411  0  1.473686  0  0  0.311513  0  1.896066  0  0  0.343975  0  1.851846  0  0.495152  0  0.465953  0.288751  0  1.926641  0
Ag  Ag3  1  0.51104508  0.80100929  0.65690826  1  0  0.462424  0  1.473687  0  0  0.31152  0  1.896066  0  0  0.343984  0  1.851848  0  0.49515  0  0.465955  0.288761  0  1.926639  0
H  H4  1  0.63169771  0.51191025  0.77158813  1  0  0.09303  0  0.931682  0  0  0.105454  0  0.990201  0  0  0.108285  0  0.986425  0  0.151886  0  0.136521  0.103392  0  0.992784  0
H  H5  1  0.36830146  0.48808777  0.22841399  1  0  0.093  0  0.931674  0  0  0.105423  0  0.990199  0  0  0.108234  0  0.986451  0  0.151462  0  0.136529  0.103361  0  0.992785  0
H  H6  1  0.00702744  0.30449726  0.73599965  1  0  0.134357  0  0.959291  0  0  0.141677  0  1.019764  0  0  0.145239  0  1.017671  0  0.162643  0  0.128439  0.139038  0  1.021421  0
H  H7  1  0.99297316  0.69550706  0.26400062  1  0  0.13435  0  0.959314  0  0  0.141663  0  1.01979  0  0  0.145226  0  1.017696  0  0.162766  0  0.128425  0.139024  0  1.021447  0
H  H8  1  0.03913754  0.51341548  0.60694538  1  0  0.118181  0  0.951873  0  0  0.127851  0  1.008968  0  0  0.130623  0  1.007453  0  0.154513  0  0.120566  0.125716  0  1.010392  0
H  H9  1  0.96085843  0.48658795  0.39305428  1  0  0.118192  0  0.951811  0  0  0.127859  0  1.008914  0  0  0.13063  0  1.007405  0  0.154484  0  0.120573  0.125724  0  1.01034  0
H  H10  1  0.64750380  0.32498679  0.92144479  1  0  0.088415  0  0.921531  0  0  0.103737  0  0.97936  0  0  0.104405  0  0.979783  0  0.071456  0  0.118195  0.103002  0  0.979313  0
H  H11  1  0.35249398  0.67501303  0.07855279  1  0  0.088378  0  0.921548  0  0  0.103714  0  0.97938  0  0  0.104382  0  0.979803  0  0.071534  0  0.118199  0.102983  0  0.979334  0
H  H12  1  0.80632614  0.23157416  0.88386495  1  0  0.104422  0  0.898396  0  0  0.122856  0  0.951433  0  0  0.123724  0  0.95095  0  0.082724  0  0.129861  0.121995  0  0.95218  0
H  H13  1  0.19367454  0.76842567  0.11613398  1  0  0.104386  0  0.898379  0  0  0.12283  0  0.951434  0  0  0.123695  0  0.950952  0  0.082941  0  0.129845  0.121971  0  0.952181  0
H  H14  1  0.51157972  0.31106678  0.81796395  1  0  0.085023  0  0.930254  0  0  0.099854  0  0.993927  0  0  0.10012  0  0.994757  0  0.082645  0  0.113463  0.099602  0  0.993418  0
H  H15  1  0.48842062  0.68893034  0.18203449  1  0  0.085027  0  0.9302  0  0  0.099862  0  0.993877  0  0  0.10013  0  0.994705  0  0.082655  0  0.113448  0.09961  0  0.993368  0
H  H16  1  0.63570417  0.35100991  0.68380176  1  0  0.0855  0  0.944599  0  0  0.102697  0  1.004649  0  0  0.103137  0  1.004392  0  0.083823  0  0.121117  0.102251  0  1.004973  0
H  H17  1  0.36429596  0.64898811  0.31619669  1  0  0.08552  0  0.944637  0  0  0.102724  0  1.00468  0  0  0.103163  0  1.004425  0  0.083735  0  0.12113  0.102277  0  1.005005  0
H  H18  1  0.61357885  0.32815309  0.50223317  1  0  0.121888  0  0.916402  0  0  0.133825  0  0.974339  0  0  0.136643  0  0.970434  0  0.157062  0  0.146095  0.13159  0  0.977367  0
H  H19  1  0.38641893  0.67184673  0.49776605  1  0  0.121933  0  0.916472  0  0  0.13387  0  0.974396  0  0  0.136688  0  0.970491  0  0.157037  0  0.146115  0.131632  0  0.977427  0
H  H20  1  0.45495981  0.08463977  0.78043467  1  0  0.115114  0  0.966263  0  0  0.124861  0  1.028823  0  0  0.127347  0  1.027563  0  0.138149  0  0.122928  0.12301  0  1.029893  0
H  H21  1  0.54504321  0.91535824  0.21956266  1  0  0.115097  0  0.966276  0  0  0.124854  0  1.028818  0  0  0.12734  0  1.02756  0  0.138155  0  0.122929  0.123003  0  1.029888  0
H  H22  1  0.40131104  0.04898533  0.58634580  1  0  0.093792  0  0.982821  0  0  0.103633  0  1.047426  0  0  0.105416  0  1.046705  0  0.11375  0  0.114351  0.102267  0  1.048121  0
H  H23  1  0.59868770  0.95101449  0.41365387  1  0  0.093787  0  0.982868  0  0  0.103609  0  1.047475  0  0  0.105394  0  1.046754  0  0.113813  0  0.11435  0.102247  0  1.048165  0
H  H24  1  0.87096981  0.22409033  0.60199379  1  0  0.095702  0  0.916408  0  0  0.110405  0  0.976102  0  0  0.111202  0  0.976122  0  0.055797  0  0.120474  0.109564  0  0.976524  0
H  H25  1  0.12903363  0.77590588  0.39800515  1  0  0.095681  0  0.916397  0  0  0.110369  0  0.976087  0  0  0.111166  0  0.976107  0  0.055769  0  0.120453  0.109528  0  0.976509  0
H  H26  1  0.91605659  0.11310225  0.69550860  1  0  0.091815  0  0.923331  0  0  0.106843  0  0.985238  0  0  0.107275  0  0.985582  0  0.098344  0  0.119015  0.106397  0  0.985232  0
H  H27  1  0.08394492  0.88689396  0.30449027  1  0  0.091792  0  0.923316  0  0  0.106825  0  0.985178  0  0  0.107257  0  0.985521  0  0.098336  0  0.119014  0.106379  0  0.985174  0
H  H28  1  0.83850914  0.15283280  0.42753752  1  0  0.12557  0  0.934047  0  0  0.141535  0  0.983576  0  0  0.144093  0  0.982059  0  0.144364  0  0.131826  0.139654  0  0.984772  0
H  H29  1  0.16148939  0.84716792  0.57246134  1  0  0.125575  0  0.934055  0  0  0.141541  0  0.983588  0  0  0.144099  0  0.982072  0  0.144443  0  0.131805  0.13966  0  0.984784  0
H  H30  1  0.82360529  0.92823694  0.36343043  1  0  0.113595  0  0.938566  0  0  0.128083  0  0.988967  0  0  0.13061  0  0.987452  0  0.11326  0  0.122782  0.126199  0  0.990236  0
H  H31  1  0.17639518  0.07176378  0.63656522  1  0  0.113575  0  0.938588  0  0  0.128066  0  0.988987  0  0  0.13059  0  0.987469  0  0.113317  0  0.122774  0.126182  0  0.990255  0
H  H32  1  0.84992171  0.90069417  0.70271085  1  0  0.119592  0  1.002276  0  0  0.123363  0  1.072454  0  0  0.127724  0  1.067395  0  0.242548  0  0.129232  0.120161  0  1.07602  0
H  H33  1  0.15007724  0.09930475  0.29728717  1  0  0.119536  0  1.002318  0  0  0.123317  0  1.072496  0  0  0.127679  0  1.067436  0  0.242536  0  0.129227  0.120126  0  1.076047  0
H  H34  1  0.62589923  0.03448701  0.81963241  1  0  0.086584  0  0.951621  0  0  0.097132  0  1.02026  0  0  0.097808  0  1.020946  0  0.04486  0  0.109805  0.096564  0  1.019871  0
H  H35  1  0.37410379  0.96551101  0.18036573  1  0  0.086596  0  0.951586  0  0  0.09712  0  1.020252  0  0  0.097803  0  1.020919  0  0.044886  0  0.109805  0.096551  0  1.019862  0
H  H36  1  0.75235052  0.03407354  0.86866577  1  0  0.120308  0  0.947385  0  0  0.127177  0  1.017283  0  0  0.13063  0  1.013954  0  0.17059  0  0.121645  0.124478  0  1.019864  0
H  H37  1  0.24765423  0.96592538  0.13133165  1  0  0.120205  0  0.947451  0  0  0.127103  0  1.017314  0  0  0.130555  0  1.013985  0  0.170631  0  0.121621  0.124399  0  1.0199  0
H  H38  1  0.38657128  0.19244084  0.95549215  1  0  0.117455  0  0.988939  0  0  0.12522  0  1.053916  0  0  0.127259  0  1.053693  0  0.136662  0  0.122768  0.123667  0  1.054271  0
H  H39  1  0.61342837  0.80755088  0.04450612  1  0  0.117517  0  0.988892  0  0  0.125185  0  1.05398  0  0  0.127224  0  1.053758  0  0.136654  0  0.122711  0.123635  0  1.054333  0
H  H40  1  0.29107076  0.25807560  0.19479761  1  0  0.110521  0  0.985052  0  0  0.113301  0  1.059944  0  0  0.116208  0  1.058014  0  0.156706  0  0.114299  0.111058  0  1.061566  0
H  H41  1  0.70893311  0.74191882  0.80520048  1  0  0.11046  0  0.985106  0  0  0.113313  0  1.059902  0  0  0.116224  0  1.057975  0  0.157059  0  0.114271  0.111066  0  1.061529  0
H  H42  1  0.69796685  0.08782859  0.07237508  1  0  0.135875  0  0.95441  0  0  0.143348  0  1.015873  0  0  0.147624  0  1.00995  0  0.242362  0  0.14186  0.140025  0  1.020456  0
H  H43  1  0.30203866  0.91217123  0.92762445  1  0  0.135921  0  0.954406  0  0  0.143409  0  1.015842  0  0  0.147685  0  1.009921  0  0.242339  0  0.141901  0.140087  0  1.020427  0
H  H44  1  0.80175295  0.79267692  0.18156429  1  0  0.09471  0  0.972618  0  0  0.100887  0  1.042726  0  0  0.105458  0  1.038307  0  0.095269  0  0.09245  0.097585  0  1.045907  0
H  H45  1  0.19825533  0.20731930  0.81843937  1  0  0.094682  0  0.972583  0  0  0.100857  0  1.042695  0  0  0.105428  0  1.038277  0  0.095298  0  0.092423  0.097554  0  1.045876  0
H  H46  1  0.89086110  0.60228449  0.85677598  1  0  0.089844  0  0.978374  0  0  0.098633  0  1.04531  0  0  0.101514  0  1.044101  0  0.064796  0  0.093065  0.096574  0  1.04616  0
H  H47  1  0.10913190  0.39772343  0.14322862  1  0  0.089904  0  0.978331  0  0  0.098723  0  1.04523  0  0  0.101606  0  1.044019  0  0.06477  0  0.093145  0.09666  0  1.046076  0
H  H48  1  0.84734823  0.41528627  0.97604442  1  0  0.074083  0  0.971484  0  0  0.084715  0  1.033536  0  0  0.087268  0  1.033471  0  0.046827  0  0.087262  0.082947  0  1.033659  0
H  H49  1  0.15264463  0.58471805  0.02395391  1  0  0.074227  0  0.971415  0  0  0.084832  0  1.033488  0  0  0.087391  0  1.033411  0  0.046766  0  0.087329  0.083065  0  1.033613  0
H  H50  1  0.77827102  0.41984791  0.20037554  1  0  0.09248  0  0.949437  0  0  0.102767  0  1.009586  0  0  0.107249  0  1.00529  0  0.089607  0  0.095999  0.09959  0  1.012569  0
H  H51  1  0.22172827  0.58015372  0.79962215  1  0  0.092468  0  0.949436  0  0  0.102765  0  1.009588  0  0  0.107248  0  1.005292  0  0.089553  0  0.096012  0.099587  0  1.012571  0
C  C52  1  0.73799547  0.48416300  0.74165141  1  0  0.134852  0  3.687409  0  0  0.076789  0  3.94903  0  0  0.089814  0  3.962336  0  0.940192  0  0.131772  0.068488  0  3.939609  0
C  C53  1  0.26200272  0.51583502  0.25834696  1  0  0.134937  0  3.687299  0  0  0.076886  0  3.948915  0  0  0.089927  0  3.962223  0  0.940686  0  0.131801  0.068585  0  3.939498  0
C  C54  1  0.93417116  0.37670965  0.72253135  1  0  -0.051743  0  3.649384  0  0  -0.09429  0  3.91132  0  0  -0.092701  0  3.929345  0  0.285134  0  0.006609  -0.095442  0  3.89979  0
C  C55  1  0.06582716  0.62329198  0.27747001  1  0  -0.051729  0  3.649273  0  0  -0.094265  0  3.911206  0  0  -0.092681  0  3.929239  0  0.285517  0  0.006646  -0.095417  0  3.899674  0
C  C56  1  0.94920228  0.48071475  0.65756510  1  0  -0.004105  0  3.726229  0  0  -0.032515  0  3.985963  0  0  -0.031401  0  4.005433  0  0.397163  0  -0.001249  -0.03375  0  3.973437  0
C  C57  1  0.05079542  0.51928957  0.34243794  1  0  -0.004081  0  3.726077  0  0  -0.032484  0  3.985814  0  0  -0.031373  0  4.005288  0  0.396586  0  -0.001233  -0.033722  0  3.973295  0
C  C58  1  0.73901204  0.28406719  0.84551551  1  0  -0.064051  0  3.616437  0  0  -0.130594  0  3.871517  0  0  -0.127152  0  3.883552  0  0.311198  0  -0.042345  -0.13274  0  3.863446  0
C  C59  1  0.26098788  0.71593173  0.15448378  1  0  -0.063966  0  3.616285  0  0  -0.130566  0  3.87148  0  0  -0.127118  0  3.883505  0  0.310892  0  -0.042336  -0.132727  0  3.863427  0
C  C60  1  0.70815604  0.19795642  0.77240079  1  0  0.068637  0  3.508666  0  0  0.085826  0  3.760317  0  0  0.083783  0  3.778043  0  0.035744  0  -0.005831  0.087236  0  3.74814  0
C  C61  1  0.29184485  0.80204250  0.22759894  1  0  0.06872  0  3.508619  0  0  0.085851  0  3.760343  0  0  0.083812  0  3.778049  0  0.035989  0  -0.005792  0.087264  0  3.748167  0
C  C62  1  0.59886427  0.27417914  0.73607396  1  0  -0.060829  0  3.597931  0  0  -0.131038  0  3.851604  0  0  -0.12679  0  3.863391  0  0.284065  0  -0.049298  -0.133804  0  3.843604  0
C  C63  1  0.40113704  0.72581797  0.26392492  1  0  -0.060885  0  3.597904  0  0  -0.131111  0  3.851627  0  0  -0.126863  0  3.863412  0  0.284138  0  -0.049327  -0.133873  0  3.843621  0
C  C64  1  0.56656656  0.25430666  0.54820307  1  0  0.161232  0  3.618626  0  0  0.099331  0  3.874287  0  0  0.113111  0  3.888969  0  0.99034  0  0.152747  0.090365  0  3.864233  0
C  C65  1  0.43343142  0.74569225  0.45179697  1  0  0.161137  0  3.618781  0  0  0.099242  0  3.874437  0  0  0.11302  0  3.88912  0  0.990299  0  0.152728  0.090278  0  3.864387  0
C  C66  1  0.48543991  0.12563414  0.69239633  1  0  -0.059176  0  3.661456  0  0  -0.100522  0  3.923863  0  0  -0.100004  0  3.943753  0  0.280907  0  0.003147  -0.100855  0  3.910647  0
C  C67  1  0.51456097  0.87436478  0.30760258  1  0  -0.059196  0  3.661438  0  0  -0.100543  0  3.923835  0  0  -0.100029  0  3.943728  0  0.280923  0  0.003147  -0.100877  0  3.910621  0
C  C68  1  0.45811239  0.10907839  0.59576991  1  0  0.007955  0  3.762573  0  0  -0.025719  0  4.021283  0  0  -0.023108  0  4.042764  0  0.434819  0  -0.000206  -0.027507  0  4.00695  0
C  C69  1  0.54188656  0.89092053  0.40422975  1  0  0.008005  0  3.762588  0  0  -0.025645  0  4.021306  0  0  -0.023032  0  4.042786  0  0.435009  0  -0.000172  -0.027434  0  4.006973  0
C  C70  1  0.83898638  0.14994575  0.66227475  1  0  -0.056053  0  3.589305  0  0  -0.121929  0  3.8382  0  0  -0.118256  0  3.850759  0  0.327148  0  -0.046091  -0.124219  0  3.829841  0
C  C71  1  0.16101471  0.85005227  0.33772497  1  0  -0.056083  0  3.58935  0  0  -0.121872  0  3.83815  0  0  -0.1182  0  3.850711  0  0.327074  0  -0.046084  -0.124162  0  3.82979  0
C  C72  1  0.83267086  0.06884790  0.47597436  1  0  -0.063512  0  3.680535  0  0  -0.108851  0  3.945649  0  0  -0.107083  0  3.965312  0  0.280743  0  2.5e-05  -0.10986  0  3.932238  0
C  C73  1  0.16733078  0.93115192  0.52402419  1  0  -0.063578  0  3.680567  0  0  -0.108931  0  3.945705  0  0  -0.10716  0  3.96536  0  0.280594  0  -1e-06  -0.10994  0  3.932295  0
C  C74  1  0.82751705  0.95747770  0.44454702  1  0  -0.014728  0  3.762776  0  0  -0.046645  0  4.032224  0  0  -0.045331  0  4.052953  0  0.413374  0  -0.009382  -0.047427  0  4.018023  0
C  C75  1  0.17248308  0.04252031  0.55544979  1  0  -0.014675  0  3.762822  0  0  -0.046592  0  4.032257  0  0  -0.045268  0  4.052976  0  0.413428  0  -0.009355  -0.047375  0  4.018056  0
C  C76  1  0.83733175  0.93839252  0.62118157  1  0  0.131206  0  3.633812  0  0  0.075484  0  3.895205  0  0  0.087776  0  3.908878  0  0.910829  0  0.129942  0.067681  0  3.885694  0
C  C77  1  0.16266699  0.06160730  0.37881481  1  0  0.131182  0  3.633798  0  0  0.075429  0  3.89522  0  0  0.087719  0  3.908898  0  0.910726  0  0.129873  0.067617  0  3.885702  0
C  C78  1  0.66613597  0.09182453  0.85737162  1  0  -0.081148  0  3.569346  0  0  -0.140833  0  3.809097  0  0  -0.138549  0  3.821007  0  0.264682  0  -0.054125  -0.142222  0  3.801177  0
C  C79  1  0.33386650  0.90817169  0.14262770  1  0  -0.0811  0  3.569365  0  0  -0.140772  0  3.809115  0  0  -0.138487  0  3.82103  0  0.26448  0  -0.054097  -0.142153  0  3.801181  0
C  C80  1  0.43756835  0.18452463  0.01465418  1  0  -0.065702  0  3.663661  0  0  -0.108277  0  3.923732  0  0  -0.106964  0  3.943673  0  0.326631  0  -0.0034  -0.109246  0  3.910492  0
C  C81  1  0.56243337  0.81547068  0.98534467  1  0  -0.065678  0  3.663497  0  0  -0.108193  0  3.923609  0  0  -0.106881  0  3.943554  0  0.326032  0  -0.0033  -0.109166  0  3.910366  0
C  C82  1  0.39080590  0.21669750  0.13415763  1  0  -0.011828  0  3.74995  0  0  -0.044941  0  4.011998  0  0  -0.044412  0  4.035629  0  0.346852  0  -0.008513  -0.045211  0  3.995857  0
C  C83  1  0.60919754  0.78329872  0.86583802  1  0  -0.011793  0  3.749791  0  0  -0.044954  0  4.011811  0  0  -0.044427  0  4.035432  0  0.347063  0  -0.008498  -0.045232  0  3.995698  0
C  C84  1  0.60096401  0.13170551  0.07589848  1  0  0.133397  0  3.629095  0  0  0.073613  0  3.884463  0  0  0.087383  0  3.897426  0  0.910594  0  0.133839  0.064683  0  3.875503  0
C  C85  1  0.39903922  0.86829161  0.92410213  1  0  0.133356  0  3.629072  0  0  0.073545  0  3.884453  0  0  0.087312  0  3.897416  0  0.910586  0  0.133806  0.064617  0  3.875489  0
C  C86  1  0.75722251  0.60480763  0.33892465  1  0  0.624725  0  3.955464  0  0  0.577848  0  4.245983  0  0  0.611111  0  4.242162  0  1.554453  0  0.178445  0.555383  0  4.247467  0
C  C87  1  0.24277720  0.39519220  0.66107795  1  0  0.624728  0  3.95546  0  0  0.577894  0  4.245954  0  0  0.611157  0  4.242132  0  1.554462  0  0.178386  0.555428  0  4.247439  0
C  C88  1  0.78606808  0.60588768  0.20532099  1  0  -0.073245  0  3.755253  0  0  -0.046864  0  3.986343  0  0  -0.055533  0  4.011205  0  -0.030891  0  -0.030391  -0.041273  0  3.969399  0
C  C89  1  0.21393529  0.39411304  0.79467930  1  0  -0.073265  0  3.755297  0  0  -0.04697  0  3.986495  0  0  -0.055638  0  4.011355  0  -0.031185  0  -0.030417  -0.041379  0  3.96955  0
C  C90  1  0.81022726  0.70994053  0.13701675  1  0  -0.102452  0  3.741041  0  0  -0.13619  0  3.99027  0  0  -0.133998  0  4.008667  0  -0.06535  0  -0.097613  -0.137238  0  3.977706  0
C  C91  1  0.18977942  0.29005839  0.86298568  1  0  -0.102485  0  3.740845  0  0  -0.136185  0  3.990093  0  0  -0.134  0  4.008485  0  -0.065429  0  -0.097605  -0.137231  0  3.977528  0
C  C92  1  0.84466051  0.71029544  0.01206419  1  0  -0.076962  0  3.747745  0  0  -0.046843  0  3.970231  0  0  -0.055397  0  3.99376  0  -0.039204  0  -0.031022  -0.041571  0  3.954497  0
C  C93  1  0.15534105  0.28970888  0.98793819  1  0  -0.076735  0  3.747421  0  0  -0.046674  0  3.969964  0  0  -0.055211  0  3.993474  0  -0.039101  0  -0.030944  -0.041402  0  3.954229  0
C  C94  1  0.85893018  0.82698467  0.94096351  1  0  0.620089  0  3.99933  0  0  0.578699  0  4.293138  0  0  0.611755  0  4.285975  0  1.589169  0  0.171857  0.556458  0  4.296966  0
C  C95  1  0.14106869  0.17301876  0.05904162  1  0  0.619747  0  3.999426  0  0  0.578408  0  4.293161  0  0  0.61146  0  4.285998  0  1.589467  0  0.171756  0.556167  0  4.296993  0
C  C96  1  0.85877603  0.60268445  0.95466936  1  0  -0.071047  0  3.744817  0  0  -0.096118  0  3.991857  0  0  -0.095437  0  4.013741  0  0.00533  0  -0.093426  -0.096046  0  3.976743  0
C  C97  1  0.14121856  0.39732078  0.04533317  1  0  -0.071182  0  3.744746  0  0  -0.096249  0  3.991776  0  0  -0.095572  0  4.013656  0  0.005343  0  -0.093566  -0.096169  0  3.976655  0
C  C98  1  0.83352712  0.49910092  0.02189357  1  0  -0.090855  0  3.809156  0  0  -0.101501  0  4.063433  0  0  -0.106237  0  4.087098  0  -0.148639  0  -0.107034  -0.098462  0  4.047172  0
C  C99  1  0.16646789  0.50090251  0.97810729  1  0  -0.091024  0  3.809214  0  0  -0.101662  0  4.063491  0  0  -0.1064  0  4.087163  0  -0.148696  0  -0.107087  -0.098621  0  4.047228  0
C  C100  1  0.79585352  0.50054219  0.14687252  1  0  -0.077674  0  3.763124  0  0  -0.098338  0  4.002616  0  0  -0.097475  0  4.02238  0  -0.042741  0  -0.0932  -0.098527  0  3.988902  0
C  C101  1  0.20414653  0.49946033  0.85312645  1  0  -0.077625  0  3.763079  0  0  -0.098272  0  4.002583  0  0  -0.09741  0  4.022349  0  -0.042431  0  -0.093197  -0.09846  0  3.988868  0
N  N102  1  0.82622527  0.54598739  0.66944896  1  0  -0.336444  0  3.393122  0  0  -0.258239  0  3.700437  0  0  -0.276717  0  3.714162  0  -1.199815  0  -0.375539  -0.24576  0  3.690878  0
N  N103  1  0.17377133  0.45401333  0.33055230  1  0  -0.336582  0  3.3931  0  0  -0.258387  0  3.700424  0  0  -0.276861  0  3.714137  0  -1.19981  0  -0.375627  -0.245909  0  3.690869  0
N  N104  1  0.79999955  0.37987685  0.77523721  1  0  -0.070897  0  3.607509  0  0  0.023393  0  3.824293  0  0  0.008979  0  3.851406  0  -1.235665  0  -0.252666  0.03288  0  3.805883  0
N  N105  1  0.19999920  0.62012297  0.22476328  1  0  -0.070868  0  3.60734  0  0  0.023432  0  3.824144  0  0  0.009018  0  3.851247  0  -1.235655  0  -0.252672  0.032923  0  3.805736  0
N  N106  1  0.55483162  0.21731634  0.66101219  1  0  -0.050287  0  3.561135  0  0  0.043612  0  3.780279  0  0  0.028882  0  3.807665  0  -1.231599  0  -0.243661  0.053352  0  3.761659  0
N  N107  1  0.44516829  0.78268258  0.33898710  1  0  -0.050269  0  3.5611  0  0  0.043639  0  3.780239  0  0  0.028909  0  3.807628  0  -1.231615  0  -0.243667  0.053377  0  3.761621  0
N  N108  1  0.50983775  0.18892953  0.50636092  1  0  -0.332284  0  3.423686  0  0  -0.2375  0  3.714083  0  0  -0.260507  0  3.73332  0  -1.1688  0  -0.382192  -0.221907  0  3.700553  0
N  N109  1  0.49015906  0.81107029  0.49363950  1  0  -0.332235  0  3.423716  0  0  -0.237442  0  3.71409  0  0  -0.260451  0  3.733328  0  -1.168931  0  -0.382197  -0.221851  0  3.700559  0
N  N110  1  0.83639768  0.05602416  0.58900615  1  0  -0.06061  0  3.565194  0  0  0.033576  0  3.78279  0  0  0.018551  0  3.810457  0  -1.241355  0  -0.250206  0.043459  0  3.763967  0
N  N111  1  0.16360106  0.94397566  0.41099271  1  0  -0.060552  0  3.565217  0  0  0.033626  0  3.782789  0  0  0.018599  0  3.810462  0  -1.241306  0  -0.250151  0.043509  0  3.763967  0
N  N112  1  0.83065587  0.87746262  0.53553800  1  0  -0.357978  0  3.339098  0  0  -0.283438  0  3.64706  0  0  -0.30266  0  3.661783  0  -1.212471  0  -0.376337  -0.270277  0  3.636561  0
N  N113  1  0.16934501  0.12253630  0.46445844  1  0  -0.357906  0  3.339054  0  0  -0.283356  0  3.647004  0  0  -0.302578  0  3.661726  0  -1.21244  0  -0.37627  -0.270193  0  3.636506  0
N  N114  1  0.56993936  0.13114161  0.97916071  1  0  -0.04901  0  3.571322  0  0  0.045723  0  3.786416  0  0  0.0315  0  3.813083  0  -1.224607  0  -0.249754  0.055144  0  3.768306  0
N  N115  1  0.43006484  0.86885551  0.02083788  1  0  -0.049022  0  3.571166  0  0  0.045721  0  3.786238  0  0  0.031497  0  3.812906  0  -1.224476  0  -0.249789  0.055143  0  3.768121  0
N  N116  1  0.49367676  0.18357519  0.17123759  1  0  -0.362631  0  3.436546  0  0  -0.266689  0  3.732554  0  0  -0.289635  0  3.751023  0  -1.21095  0  -0.391684  -0.250989  0  3.719293  0
N  N117  1  0.50632530  0.81642282  0.82876094  1  0  -0.362691  0  3.43654  0  0  -0.266738  0  3.732564  0  0  -0.289682  0  3.751037  0  -1.211027  0  -0.391694  -0.251039  0  3.719299  0
O  O118  1  0.72101884  0.51631604  0.40237608  1  0  -0.667068  0  1.845513  0  0  -0.627582  0  2.059359  0  0  -0.650078  0  2.048901  0  -1.202194  0  -0.373484  -0.61159  0  2.065921  0
O  O119  1  0.27898377  0.48368378  0.59762540  1  0  -0.667075  0  1.845461  0  0  -0.627593  0  2.059284  0  0  -0.650091  0  2.048828  0  -1.202176  0  -0.373458  -0.6116  0  2.065844  0
O  O120  1  0.77780903  0.69863012  0.37586860  1  0  -0.652957  0  2.090319  0  0  -0.572995  0  2.353251  0  0  -0.604748  0  2.344873  0  -1.154394  0  -0.352935  -0.550506  0  2.357891  0
O  O121  1  0.22218854  0.30137060  0.62413476  1  0  -0.652917  0  2.090272  0  0  -0.57295  0  2.353161  0  0  -0.604702  0  2.344784  0  -1.154368  0  -0.352875  -0.550461  0  2.3578  0
O  O122  1  0.81758423  0.92419686  0.00323833  1  0  -0.68511  0  1.902878  0  0  -0.64395  0  2.124951  0  0  -0.667118  0  2.113281  0  -1.218964  0  -0.378275  -0.627322  0  2.132337  0
O  O123  1  0.18241381  0.07581016  0.99677427  1  0  -0.684983  0  1.902933  0  0  -0.643844  0  2.124988  0  0  -0.667008  0  2.11332  0  -1.21911  0  -0.378241  -0.627219  0  2.132378  0
O  O124  1  0.90415102  0.81885227  0.82641665  1  0  -0.666998  0  1.895517  0  0  -0.621128  0  2.111687  0  0  -0.644038  0  2.101262  0  -1.199653  0  -0.371504  -0.604819  0  2.118075  0
O  O125  1  0.09583962  0.18115746  0.17359203  1  0  -0.666816  0  1.895642  0  0  -0.620966  0  2.111787  0  0  -0.643878  0  2.101362  0  -1.199745  0  -0.371451  -0.604659  0  2.118174  0
