# generated using pymatgen
data_CuH20C17N2O5
_symmetry_space_group_name_H-M   'P 1'
_cell_length_a   6.75322095
_cell_length_b   7.35087767
_cell_length_c   17.54472176
_cell_angle_alpha   89.99867014
_cell_angle_beta   90.00061623
_cell_angle_gamma   86.68845311
_symmetry_Int_Tables_number   1
_chemical_formula_structural   CuH20C17N2O5
_chemical_formula_sum   'Cu2 H40 C34 N4 O10'
_cell_volume   869.50252245
_cell_formula_units_Z   2
loop_
 _symmetry_equiv_pos_site_id
 _symmetry_equiv_pos_as_xyz
  1  'x, y, z'
loop_
 _atom_site_type_symbol
 _atom_site_label
 _atom_site_symmetry_multiplicity
 _atom_site_fract_x
 _atom_site_fract_y
 _atom_site_fract_z
 _atom_site_occupancy
 _atom_site_hle17_ddec_charge
 _atom_site_hle17_ddec_spin_density
 _atom_site_hle17_ddec_sum_bond_order
 _atom_site_hle17_magmom
 _atom_site_hse06_10hf_ddec_charge
 _atom_site_hse06_10hf_ddec_spin_density
 _atom_site_hse06_10hf_ddec_sum_bond_order
 _atom_site_hse06_10hf_magmom
 _atom_site_hse06_ddec_charge
 _atom_site_hse06_ddec_spin_density
 _atom_site_hse06_ddec_sum_bond_order
 _atom_site_hse06_magmom
 _atom_site_pbe_cm5_charge
 _atom_site_pbe_ddec_charge
 _atom_site_pbe_ddec_spin_density
 _atom_site_pbe_ddec_sum_bond_order
 _atom_site_pbe_magmom
Cu  Cu0  1  0.93840907  0.14145202  0.64352294  1  0.831345  -0.722812  1.829734  -0.505  0.808442  -0.806896  2.222901  -0.621  0.896499  -0.882061  2.156448  -0.706  0.728713  0.755019  -0.752558  2.268747  -0.566
Cu  Cu1  1  0.06157179  0.85853692  0.14352687  1  0.831125  0.722804  1.829912  0.505  0.808227  0.806884  2.223072  0.621  0.896228  0.882051  2.156678  0.706  0.728619  0.754837  0.752539  2.268844  0.566
H  H2  1  0.83903910  0.20764111  0.50591807  1  0.270571  0.001097  0.880229  0.002  0.26585  1.7e-05  0.931484  0.001  0.271586  0.000249  0.929429  0.001  0.30738  0.261868  -0.000191  0.933186  0.0
H  H3  1  0.16095763  0.79237271  0.00592304  1  0.270447  -0.0011  0.880323  -0.002  0.265753  -1.7e-05  0.931537  -0.001  0.271489  -0.000248  0.929481  -0.001  0.307384  0.261768  0.000192  0.933243  0.0
H  H4  1  0.61779343  0.37798196  0.63576440  1  0.412695  0.000121  0.897223  0.0  0.384761  7.8e-05  0.958816  0.0  0.39723  6.5e-05  0.940459  0.0  0.27977  0.376063  6.6e-05  0.971604  0.0
H  H5  1  0.38219900  0.62200839  0.13576393  1  0.412619  -0.000122  0.897297  0.0  0.384713  -7.8e-05  0.958844  0.0  0.397176  -6.5e-05  0.940498  0.0  0.279783  0.37602  -6.6e-05  0.971624  0.0
H  H6  1  0.77105663  0.52453577  0.65956203  1  0.407654  6.7e-05  0.906105  0.0  0.382748  5.7e-05  0.962383  0.0  0.394725  4.3e-05  0.945083  0.0  0.274899  0.374589  6e-05  0.974131  0.0
H  H7  1  0.22894251  0.47545302  0.15956352  1  0.407533  -6.7e-05  0.906278  0.0  0.382599  -5.7e-05  0.962604  0.0  0.394575  -4.3e-05  0.945305  0.0  0.274847  0.37443  -6e-05  0.974357  0.0
H  H8  1  0.35335935  0.90391431  0.62991112  1  0.128653  0.000422  0.976735  0.0  0.140889  9.5e-05  1.049054  0.0  0.144035  0.000124  1.046006  0.0  0.087957  0.138417  4.6e-05  1.05161  0.0
H  H9  1  0.64663983  0.09609656  0.12991682  1  0.128592  -0.00042  0.976773  0.0  0.14088  -9.5e-05  1.04905  0.0  0.144027  -0.000124  1.045996  0.0  0.08797  0.138405  -4.5e-05  1.051609  0.0
H  H10  1  0.43422729  0.74030242  0.69985391  1  0.135627  -0.000452  0.955281  -0.001  0.153463  -0.000509  1.016388  -0.001  0.154573  -0.000334  1.017535  0.0  0.098244  0.152707  -0.000655  1.015534  -0.001
H  H11  1  0.56573296  0.25969221  0.19985371  1  0.135705  0.000452  0.955266  0.001  0.153521  0.000508  1.016387  0.001  0.154613  0.000333  1.017556  0.0  0.098271  0.152763  0.000654  1.015532  0.001
H  H12  1  0.44363940  0.67665458  0.60330953  1  0.14394  -0.000229  0.965617  0.0  0.160125  -0.00022  1.026767  0.0  0.162396  -9.5e-05  1.026673  0.0  0.096023  0.158418  -0.000331  1.026905  0.0
H  H13  1  0.55634311  0.32333656  0.10331437  1  0.143829  0.00023  0.965727  0.0  0.160097  0.000221  1.026806  0.0  0.162366  9.6e-05  1.026712  0.0  0.096019  0.158392  0.000331  1.026936  0.0
H  H14  1  0.21485009  0.24563121  0.46153919  1  0.0648  -0.001534  0.921084  -0.002  0.076787  -0.001288  0.981006  -0.001  0.078216  -0.000926  0.980641  -0.001  0.108854  0.075836  -0.001554  0.981306  -0.001
H  H15  1  0.78515844  0.75435803  0.96153951  1  0.06459  0.001535  0.921155  0.002  0.076663  0.001288  0.981012  0.001  0.078106  0.000926  0.980649  0.001  0.108839  0.075703  0.001554  0.981315  0.001
H  H16  1  0.91577240  0.88369299  0.52088639  1  0.097355  -0.000456  0.934804  -0.001  0.110855  -0.000395  0.999052  -0.001  0.111801  -0.000274  0.998618  -0.001  0.115596  0.109877  -0.000518  0.999653  -0.001
H  H17  1  0.08420692  0.11632465  0.02088566  1  0.097386  0.000459  0.934736  0.001  0.110913  0.000395  0.998944  0.001  0.111854  0.000274  0.998502  0.001  0.11562  0.109932  0.000518  0.999546  0.001
H  H18  1  0.16920174  0.92910475  0.52336349  1  0.081439  -0.000133  0.925333  -0.001  0.098449  -4.7e-05  0.987314  0.0  0.09877  0.0  0.986525  0.0  0.11348  0.09792  -9.7e-05  0.988275  0.0
H  H19  1  0.83077689  0.07088283  0.02335934  1  0.08146  0.000134  0.925303  0.001  0.098433  4.7e-05  0.987323  0.0  0.098749  -0.0  0.986518  0.0  0.113459  0.097902  9.8e-05  0.988284  0.0
H  H20  1  0.95481722  0.53366798  0.54736394  1  0.10197  2.6e-05  0.947804  0.0  0.116364  4e-06  1.011616  0.0  0.117797  1.6e-05  1.01119  0.0  0.101061  0.115138  -1.2e-05  1.012173  0.0
H  H21  1  0.04521222  0.46633291  0.04736820  1  0.102121  -2.6e-05  0.947732  0.0  0.116364  -4e-06  1.01177  0.0  0.117797  -1.6e-05  1.011344  0.0  0.101091  0.115135  1.2e-05  1.012319  0.0
H  H22  1  0.16247553  0.57044999  0.48906943  1  0.09202  -9e-05  0.930553  0.0  0.110768  -0.000119  0.989922  0.0  0.111453  -6e-05  0.990551  0.0  0.100257  0.110252  -0.00018  0.989534  0.0
H  H23  1  0.83754731  0.42953451  0.98907825  1  0.092  9.3e-05  0.930567  0.0  0.110811  0.000118  0.989836  0.0  0.111496  6e-05  0.99046  0.0  0.100287  0.110286  0.000179  0.989442  0.0
H  H24  1  0.74902303  0.98615865  0.25283286  1  0.089001  0.000749  0.942385  0.001  0.098849  0.00069  1.003744  0.001  0.100737  0.000498  1.001629  0.001  0.124719  0.097163  0.000848  1.005651  0.001
H  H25  1  0.25096853  0.01383469  0.75283711  1  0.08895  -0.000744  0.942306  -0.001  0.098828  -0.00069  1.00364  -0.001  0.100714  -0.000498  1.001527  -0.001  0.124724  0.09714  -0.000849  1.005546  -0.001
H  H26  1  0.72339044  0.03469409  0.39333382  1  0.106432  0.000523  0.931012  0.0  0.121518  0.000478  0.981939  0.0  0.124545  0.000352  0.981572  0.0  0.111133  0.119127  0.00058  0.982694  0.001
H  H27  1  0.27659247  0.96528621  0.89333918  1  0.106398  -0.000525  0.931217  0.0  0.121526  -0.000478  0.982112  0.0  0.124551  -0.000352  0.98175  0.0  0.111119  0.119173  -0.00058  0.982819  -0.001
H  H28  1  0.34988924  0.88219725  0.40781878  1  0.10412  0.000432  0.949489  0.0  0.115882  0.000401  1.007027  0.0  0.118957  0.000288  1.006499  0.0  0.107327  0.11353  0.000493  1.007786  0.0
H  H29  1  0.65010662  0.11781855  0.90781051  1  0.104186  -0.000431  0.94952  0.0  0.115958  -0.000401  1.007054  0.0  0.119028  -0.000288  1.006531  0.0  0.107343  0.113599  -0.000492  1.007812  0.0
H  H30  1  0.63305816  0.52842458  0.49427613  1  0.102381  -8.6e-05  0.986069  0.0  0.111457  -9.3e-05  1.051015  0.0  0.114964  -5.3e-05  1.048802  0.0  0.096455  0.108769  -0.000141  1.052795  0.0
H  H31  1  0.36697206  0.47163014  0.99427582  1  0.102429  8.7e-05  0.986096  0.0  0.11152  9.3e-05  1.051028  0.0  0.115088  5.3e-05  1.04873  0.0  0.096437  0.10883  0.000141  1.052807  0.0
H  H32  1  0.34955200  0.84499163  0.26579277  1  0.098622  0.000798  0.932982  0.001  0.107552  0.000736  0.992358  0.001  0.109668  0.000554  0.990466  0.001  0.126067  0.1057  0.000882  0.994094  0.001
H  H33  1  0.65043825  0.15501192  0.76578585  1  0.098644  -0.000798  0.93302  -0.001  0.107537  -0.000736  0.992423  -0.001  0.109654  -0.000554  0.990527  -0.001  0.126013  0.105683  -0.000881  0.99416  -0.001
H  H34  1  0.41195828  0.55116756  0.38187083  1  0.071383  -4e-06  0.989275  0.0  0.082085  -3e-05  1.054455  0.0  0.084434  -1.5e-05  1.053628  0.0  0.090467  0.080331  -4.7e-05  1.055255  0.0
H  H35  1  0.58806990  0.44888809  0.88186935  1  0.071344  5e-06  0.989309  0.0  0.081991  3e-05  1.05453  0.0  0.084322  1.5e-05  1.053749  0.0  0.090408  0.080244  4.7e-05  1.0553  0.0
H  H36  1  0.55197310  0.53668720  0.25086882  1  0.094737  4.2e-05  0.978796  0.0  0.10488  4.7e-05  1.041597  0.0  0.108607  3.6e-05  1.038382  0.0  0.098472  0.102043  5.7e-05  1.044066  0.0
H  H37  1  0.44802714  0.46331277  0.75086322  1  0.094796  -4.6e-05  0.978745  0.0  0.104939  -4.7e-05  1.041551  0.0  0.108668  -3.6e-05  1.038337  0.0  0.098485  0.102105  -5.7e-05  1.044015  0.0
H  H38  1  0.13861012  0.45319739  0.34497305  1  0.086121  -1.2e-05  0.9607  0.0  0.100731  -2.1e-05  1.018815  0.0  0.103388  -1.3e-05  1.017638  0.0  0.096631  0.098765  -3e-05  1.019759  0.0
H  H39  1  0.86141443  0.54677608  0.84498026  1  0.086036  1e-05  0.960893  0.0  0.100675  2.1e-05  1.018962  0.0  0.103336  1.3e-05  1.017779  0.0  0.096604  0.098705  3e-05  1.019907  0.0
H  H40  1  0.91848146  0.47951181  0.23331184  1  0.104322  -3.8e-05  0.944147  0.0  0.117885  -2.3e-05  0.997751  0.0  0.119994  -2.6e-05  0.997556  0.0  0.105428  0.116216  -1.7e-05  0.998138  0.0
H  H41  1  0.08150425  0.52045288  0.73331448  1  0.104284  3.8e-05  0.94425  0.0  0.117848  2.3e-05  0.99785  0.0  0.119957  2.6e-05  0.997657  0.0  0.10542  0.116179  1.7e-05  0.99824  0.0
C  C42  1  0.67132006  0.85474058  0.63872319  1  0.719985  0.003736  3.855971  0.007  0.687487  -0.000439  4.154968  0.002  0.724001  0.000156  4.148124  0.002  0.199425  0.662884  -0.00098  4.158445  0.002
C  C43  1  0.32866493  0.14525529  0.13872714  1  0.720207  -0.003739  3.855873  -0.007  0.687624  0.000437  4.155033  -0.002  0.724138  -0.000156  4.148172  -0.002  0.19941  0.663016  0.000979  4.158506  -0.002
C  C44  1  0.46199143  0.79146345  0.64218338  1  -0.461977  -0.010773  3.644773  -0.011  -0.532083  -0.006108  3.869655  -0.007  -0.539767  -0.004087  3.872654  -0.005  -0.25398  -0.526478  -0.007664  3.86746  -0.008
C  C45  1  0.53799367  0.20853223  0.14218186  1  -0.461914  0.010773  3.644853  0.011  -0.532099  0.006109  3.869705  0.007  -0.539763  0.004084  3.87271  0.005  -0.254014  -0.526489  0.007665  3.867492  0.008
C  C46  1  0.12739867  0.29039825  0.51188955  1  0.012867  0.000955  3.611257  0.004  -0.007546  -0.001001  3.862951  0.001  -0.007754  -0.000399  3.876202  0.002  -0.003506  -0.007503  -0.001441  3.854346  0.001
C  C47  1  0.87261662  0.70959013  0.01189190  1  0.013058  -0.000958  3.611335  -0.004  -0.007371  0.000999  3.862988  -0.001  -0.007621  0.000394  3.876285  -0.002  -0.003472  -0.007326  0.001439  3.854364  -0.001
C  C48  1  0.02552540  0.97434406  0.49846774  1  -0.038218  0.002526  3.653215  0.005  -0.103939  0.000205  3.922353  0.002  -0.098125  0.000682  3.929784  0.002  -0.067415  -0.107675  -0.000234  3.918068  0.002
C  C49  1  0.97446335  0.02565329  0.99847249  1  -0.038304  -0.002531  3.653414  -0.005  -0.104056  -0.000207  3.922511  -0.002  -0.0982  -0.000682  3.929876  -0.002  -0.06747  -0.10778  0.000234  3.918175  -0.002
C  C50  1  0.26850174  0.29659036  0.58040385  1  0.636447  0.002491  3.851851  0.004  0.594101  -0.001382  4.154856  0.0  0.629636  -0.000892  4.148636  0.0  0.20989  0.569883  -0.001748  4.15798  0.0
C  C51  1  0.73148902  0.70339771  0.08040513  1  0.636225  -0.00249  3.851854  -0.004  0.593891  0.001383  4.1549  0.0  0.629436  0.000894  4.14867  0.0  0.20991  0.569666  0.001751  4.158017  0.0
C  C52  1  0.03651251  0.48366290  0.49660292  1  -0.194582  -0.000142  3.689602  0.0  -0.243832  -0.000236  3.936052  0.0  -0.244787  -0.000133  3.948385  0.0  -0.158349  -0.242927  -0.000357  3.927634  0.0
C  C53  1  0.96350738  0.51633080  0.99661026  1  -0.194569  0.000138  3.689485  0.0  -0.243797  0.000235  3.936154  0.0  -0.244743  0.000133  3.948486  0.0  -0.158379  -0.242873  0.000357  3.927696  0.0
C  C54  1  0.87860725  0.96820151  0.28950577  1  0.143978  -0.005618  3.677807  -0.006  0.113948  -0.000797  3.934605  -0.001  0.123884  -0.001608  3.952566  -0.002  0.059066  0.107416  -0.000262  3.923267  -0.001
C  C55  1  0.12137800  0.03179406  0.78950762  1  0.144105  0.005607  3.677648  0.006  0.114032  0.000795  3.934493  0.001  0.123966  0.00161  3.952461  0.002  0.059102  0.107494  0.000262  3.923168  0.001
C  C56  1  0.90245250  0.49426905  0.42786997  1  0.077026  -0.000199  3.784253  0.0  0.101603  -0.000168  4.020969  0.0  0.101363  -9.9e-05  4.046441  0.0  -0.024722  0.101909  -0.000223  4.003325  0.0
C  C57  1  0.09757386  0.50573645  0.92787965  1  0.077135  0.000195  3.784121  0.0  0.101548  0.000168  4.021088  0.0  0.101303  0.0001  4.046572  0.0  -0.024723  0.101848  0.000223  4.003421  0.0
C  C58  1  0.03561860  0.96071473  0.41282213  1  0.123544  -0.011087  3.73196  -0.011  0.139922  -0.005022  3.970546  -0.005  0.145758  -0.004397  3.991176  -0.005  0.007883  0.135908  -0.005589  3.956695  -0.006
C  C59  1  0.96436588  0.03928756  0.91282613  1  0.12366  0.011085  3.732028  0.011  0.140193  0.00502  3.970438  0.005  0.146032  0.004399  3.991032  0.005  0.007991  0.136182  0.005588  3.956583  0.006
C  C60  1  0.86617485  0.99283890  0.36785398  1  -0.148521  0.007304  3.694773  0.008  -0.16718  0.002891  3.939772  0.004  -0.17572  0.00291  3.960946  0.004  -0.076658  -0.161778  0.00276  3.925972  0.004
C  C61  1  0.13381419  0.00716168  0.86785954  1  -0.148649  -0.007302  3.694619  -0.008  -0.16742  -0.002891  3.939668  -0.004  -0.175964  -0.002914  3.960837  -0.004  -0.076729  -0.162052  -0.002761  3.925853  -0.004
C  C62  1  0.21333245  0.91004842  0.37558646  1  -0.178353  0.006932  3.728363  0.007  -0.1955  0.002468  3.973794  0.003  -0.204596  0.002545  3.994452  0.003  -0.084611  -0.189804  0.002239  3.960505  0.003
C  C63  1  0.78666848  0.08996086  0.87558527  1  -0.178416  -0.006932  3.728604  -0.007  -0.195655  -0.002466  3.973984  -0.003  -0.204751  -0.002547  3.994643  -0.003  -0.084598  -0.189957  -0.002238  3.960678  -0.003
C  C64  1  0.69669917  0.51982430  0.43720158  1  -0.154525  -0.000462  3.776235  0.0  -0.174441  -0.000262  4.021157  0.0  -0.177365  -0.000161  4.041836  0.0  -0.109276  -0.172269  -0.000372  4.007019  0.0
C  C65  1  0.30333713  0.48021165  0.93720322  1  -0.154651  0.000463  3.776264  0.0  -0.174522  0.000263  4.021218  0.0  -0.177486  0.00016  4.041864  0.0  -0.109292  -0.172352  0.000371  4.00707  0.0
C  C66  1  0.21540056  0.88882058  0.29678794  1  0.144234  -0.006777  3.672371  -0.007  0.115799  -0.001383  3.922601  -0.002  0.125617  -0.0022  3.941018  -0.003  0.055495  0.109346  -0.000737  3.910942  -0.001
C  C67  1  0.78458631  0.11117861  0.79678311  1  0.144259  0.006784  3.672298  0.007  0.115895  0.001385  3.922459  0.002  0.125713  0.002204  3.940878  0.003  0.055535  0.109438  0.000738  3.910794  0.001
C  C68  1  0.57174126  0.53139183  0.37364541  1  -0.086805  0.000101  3.832004  0.0  -0.098157  -1.7e-05  4.08094  0.0  -0.100439  1.7e-05  4.104005  0.0  -0.105991  -0.096377  -5.8e-05  4.064979  0.0
C  C69  1  0.42828714  0.46864386  0.87364595  1  -0.086758  -0.000107  3.831903  0.0  -0.098024  1.7e-05  4.080812  0.0  -0.100313  -1.6e-05  4.103887  0.0  -0.105894  -0.096237  5.8e-05  4.064838  0.0
C  C70  1  0.65004012  0.52014001  0.30008846  1  -0.087625  -0.000233  3.779122  0.0  -0.101474  -7.5e-05  4.025326  0.0  -0.10396  -7.3e-05  4.046865  0.0  -0.099035  -0.099552  -8.2e-05  4.010461  0.0
C  C71  1  0.34997455  0.47987849  0.80008971  1  -0.087813  0.000241  3.779167  0.0  -0.101676  7.6e-05  4.025379  0.0  -0.104157  7.2e-05  4.046903  0.0  -0.099147  -0.099764  8.2e-05  4.010532  0.0
C  C72  1  0.97915926  0.47631532  0.35368892  1  -0.128875  -4.6e-05  3.746104  0.0  -0.150728  -8.5e-05  3.995626  0.0  -0.154316  -7.1e-05  4.018857  0.0  -0.099298  -0.147977  -0.000101  3.979496  0.0
C  C73  1  0.02086119  0.52365508  0.85369756  1  -0.128921  5.2e-05  3.746152  0.0  -0.150729  8.6e-05  3.995719  0.0  -0.154316  7e-05  4.018946  0.0  -0.099255  -0.147976  0.000101  3.979584  0.0
C  C74  1  0.85495559  0.49025004  0.29029176  1  -0.050747  -5.3e-05  3.753751  0.0  -0.06493  -1e-06  4.003638  0.0  -0.066342  8e-06  4.026174  0.0  -0.090312  -0.063844  -1.7e-05  3.98821  0.0
C  C75  1  0.14505341  0.50974470  0.79029305  1  -0.050566  5.2e-05  3.753705  0.0  -0.064743  1e-06  4.003568  0.0  -0.066154  -7e-06  4.026103  0.0  -0.090238  -0.063668  1.8e-05  3.988154  0.0
N  N76  1  0.97324885  0.16020968  0.52769834  1  -0.384704  -0.088349  3.261985  -0.108  -0.346145  -0.059309  3.540168  -0.077  -0.3757  -0.047835  3.554977  -0.066  -0.484476  -0.328171  -0.065558  3.531812  -0.082
N  N77  1  0.02674304  0.83978675  0.02769661  1  -0.384483  0.088338  3.262122  0.108  -0.345965  0.059303  3.540376  0.077  -0.375507  0.047827  3.55517  0.066  -0.484478  -0.328001  0.065554  3.532018  0.082
N  N78  1  0.05015505  0.91620362  0.25463691  1  -0.282052  0.068036  3.323302  0.083  -0.233932  0.049231  3.617463  0.064  -0.263349  0.041798  3.637525  0.057  -0.342231  -0.216818  0.052998  3.606224  0.067
N  N79  1  0.94983944  0.08379361  0.75463472  1  -0.282237  -0.068024  3.323523  -0.083  -0.234086  -0.049217  3.617657  -0.064  -0.263518  -0.04179  3.637725  -0.057  -0.342319  -0.21697  -0.052987  3.606426  -0.067
O  O80  1  0.21050431  0.22866564  0.64371029  1  -0.589965  -0.079688  2.058298  -0.104  -0.561753  -0.052948  2.343316  -0.075  -0.601409  -0.042067  2.333565  -0.063  -0.323697  -0.53532  -0.059541  2.349858  -0.082
O  O81  1  0.78949689  0.77134030  0.14371741  1  -0.589957  0.079731  2.05806  0.104  -0.561731  0.05297  2.343027  0.076  -0.601382  0.042087  2.333264  0.063  -0.323785  -0.535329  0.059566  2.349608  0.082
O  O82  1  0.68292822  0.02813933  0.62986246  1  -0.59962  -0.102537  2.044812  -0.133  -0.572959  -0.062605  2.32274  -0.089  -0.616916  -0.047554  2.316282  -0.072  -0.335037  -0.543699  -0.072259  2.326578  -0.099
O  O83  1  0.31707724  0.97185637  0.12987942  1  -0.599707  0.102518  2.044884  0.133  -0.572986  0.062595  2.322763  0.089  -0.616958  0.047548  2.316372  0.072  -0.334997  -0.543717  0.072252  2.326552  0.099
O  O84  1  0.73897689  0.39433794  0.66681321  1  -0.863934  0.001511  1.873217  0.001  -0.823688  0.001099  2.065027  0.001  -0.846045  0.001213  2.027162  0.001  -0.6121  -0.807946  0.000906  2.091319  0.0
O  O85  1  0.26101969  0.60564373  0.16681869  1  -0.863776  -0.00151  1.873429  -0.001  -0.823514  -0.0011  2.065181  -0.001  -0.845853  -0.001213  2.027328  -0.001  -0.612074  -0.807769  -0.000907  2.091488  0.0
O  O86  1  0.81952899  0.74329383  0.64498232  1  -0.641629  -0.000386  1.931716  -0.001  -0.601592  0.000195  2.153966  0.0  -0.627775  0.000833  2.143064  0.001  -0.327863  -0.583584  -0.000421  2.161111  -0.001
O  O87  1  0.18045053  0.25669099  0.14498574  1  -0.641792  0.000384  1.93162  0.001  -0.601696  -0.000197  2.153902  0.0  -0.62788  -0.000834  2.143013  -0.001  -0.327856  -0.583693  0.000421  2.16104  0.001
O  O88  1  0.42776811  0.37222267  0.57104543  1  -0.591036  -0.016398  1.998535  -0.02  -0.543263  -0.008493  2.221108  -0.011  -0.57019  -0.004519  2.212414  -0.006  -0.302096  -0.523286  -0.012888  2.225708  -0.016
O  O89  1  0.57223946  0.62779395  0.07105365  1  -0.590708  0.01639  1.99907  0.02  -0.542971  0.008492  2.22167  0.011  -0.569892  0.00452  2.212979  0.006  -0.302008  -0.523008  0.012884  2.22627  0.016
