# generated using pymatgen
data_CdH19C16N2O5
_symmetry_space_group_name_H-M   'P 1'
_cell_length_a   8.69988357
_cell_length_b   10.30755539
_cell_length_c   10.92736275
_cell_angle_alpha   64.05336991
_cell_angle_beta   70.78948952
_cell_angle_gamma   78.38809403
_symmetry_Int_Tables_number   1
_chemical_formula_structural   CdH19C16N2O5
_chemical_formula_sum   'Cd2 H38 C32 N4 O10'
_cell_volume   830.17087331
_cell_formula_units_Z   2
loop_
 _symmetry_equiv_pos_site_id
 _symmetry_equiv_pos_as_xyz
  1  'x, y, z'
loop_
 _atom_site_type_symbol
 _atom_site_label
 _atom_site_symmetry_multiplicity
 _atom_site_fract_x
 _atom_site_fract_y
 _atom_site_fract_z
 _atom_site_occupancy
 _atom_site_hle17_bader_spin_density
 _atom_site_hle17_ddec_charge
 _atom_site_hle17_ddec_spin_density
 _atom_site_hle17_ddec_sum_bond_order
 _atom_site_hle17_magmom
 _atom_site_hse06_10hf_bader_spin_density
 _atom_site_hse06_10hf_ddec_charge
 _atom_site_hse06_10hf_ddec_spin_density
 _atom_site_hse06_10hf_ddec_sum_bond_order
 _atom_site_hse06_10hf_magmom
 _atom_site_hse06_bader_spin_density
 _atom_site_hse06_ddec_charge
 _atom_site_hse06_ddec_spin_density
 _atom_site_hse06_ddec_sum_bond_order
 _atom_site_hse06_magmom
 _atom_site_pbe_bader_spin_density
 _atom_site_pbe_cm5_charge
 _atom_site_pbe_ddec_charge
 _atom_site_pbe_ddec_spin_density
 _atom_site_pbe_ddec_sum_bond_order
 _atom_site_pbe_magmom
Cd  Cd0  1  0.22731955  0.08429554  0.08741582  1  0  1.163946  0  1.666956  0  0  0.98389  0  2.110549  0  0  1.040507  0  2.055674  0  0  0.773125  0.943294  0  2.1477  0
Cd  Cd1  1  0.77268154  0.91570557  0.91258225  1  0  1.163919  0  1.666971  0  0  0.983863  0  2.110568  0  0  1.040476  0  2.055694  0  0  0.773119  0.943264  0  2.147715  0
H  H2  1  0.25381743  0.79303860  0.32723222  1  0  0.123991  0  0.948749  0  0  0.134953  0  1.016091  0  0  0.137494  0  1.014492  0  0  0.104336  0.133128  0  1.017317  0
H  H3  1  0.74618263  0.20696033  0.67276885  1  0  0.123962  0  0.948764  0  0  0.134925  0  1.016116  0  0  0.137465  0  1.014517  0  0  0.104324  0.133101  0  1.017343  0
H  H4  1  0.40460610  0.64428475  0.34022863  1  0  0.106441  0  0.946338  0  0  0.120682  0  1.007908  0  0  0.123198  0  1.006151  0  0  0.09825  0.118843  0  1.009249  0
H  H5  1  0.59539378  0.35571636  0.65976976  1  0  0.106431  0  0.946355  0  0  0.120672  0  1.007925  0  0  0.123188  0  1.006168  0  0  0.098253  0.118835  0  1.009265  0
H  H6  1  0.23247234  0.94934872  0.45183017  1  0  0.117394  0  0.938608  0  0  0.12865  0  0.998606  0  0  0.132499  0  0.996041  0  0  0.10545  0.125875  0  1.000543  0
H  H7  1  0.76753014  0.05065023  0.54816842  1  0  0.117412  0  0.938639  0  0  0.12867  0  0.998626  0  0  0.13252  0  0.996061  0  0  0.105454  0.125896  0  1.000564  0
H  H8  1  0.47954225  0.79980405  0.77757934  1  0  0.097861  0  0.957556  0  0  0.108853  0  1.020354  0  0  0.11205  0  1.018736  0  0  0.098083  0.106567  0  1.02158  0
H  H9  1  0.52045433  0.20019271  0.22242264  1  0  0.097816  0  0.957556  0  0  0.108795  0  1.020374  0  0  0.111991  0  1.018757  0  0  0.098053  0.106509  0  1.021597  0
H  H10  1  0.61874833  0.59713854  0.70852821  1  0  0.080619  0  0.964048  0  0  0.091523  0  1.024721  0  0  0.094104  0  1.024163  0  0  0.095175  0.089758  0  1.025097  0
H  H11  1  0.38125061  0.40285931  0.29147361  1  0  0.080613  0  0.964061  0  0  0.091547  0  1.024708  0  0  0.094131  0  1.024144  0  0  0.095169  0.089781  0  1.025081  0
H  H12  1  0.57499967  0.57754365  0.50266331  1  0  0.086558  0  0.972943  0  0  0.099647  0  1.035503  0  0  0.102031  0  1.034924  0  0  0.09649  0.097821  0  1.036144  0
H  H13  1  0.42500272  0.42245638  0.49733394  1  0  0.086561  0  0.972954  0  0  0.099655  0  1.035503  0  0  0.102038  0  1.034927  0  0  0.096497  0.097839  0  1.036134  0
H  H14  1  0.25631607  0.10993701  0.56325049  1  0  0.11293  0  0.939967  0  0  0.126352  0  1.001162  0  0  0.128289  0  1.000968  0  0  0.101379  0.124899  0  1.001442  0
H  H15  1  0.74368391  0.89006301  0.43675015  1  0  0.11293  0  0.939972  0  0  0.126354  0  1.001172  0  0  0.128291  0  1.000979  0  0  0.101377  0.124899  0  1.001452  0
H  H16  1  0.33031714  0.03341563  0.71605241  1  0  0.112439  0  0.958687  0  0  0.124311  0  1.022438  0  0  0.126268  0  1.02223  0  0  0.100423  0.122834  0  1.022753  0
H  H17  1  0.66968414  0.96658331  0.28394742  1  0  0.112445  0  0.958683  0  0  0.124324  0  1.022429  0  0  0.126281  0  1.022223  0  0  0.100434  0.122845  0  1.022744  0
H  H18  1  0.95821769  0.28830887  0.25116548  1  0  0.097172  0  0.944503  0  0  0.105331  0  1.011884  0  0  0.107119  0  1.010134  0  0  0.13632  0.10402  0  1.013053  0
H  H19  1  0.04177984  0.71169114  0.74883400  1  0  0.09719  0  0.944509  0  0  0.105348  0  1.01188  0  0  0.10714  0  1.010127  0  0  0.136317  0.104038  0  1.013049  0
H  H20  1  0.25154252  0.64511571  0.00313507  1  0  0.120581  0  0.971995  0  0  0.126773  0  1.04049  0  0  0.130137  0  1.038308  0  0  0.121516  0.124816  0  1.041539  0
H  H21  1  0.74845746  0.35488431  0.99686649  1  0  0.120573  0  0.972019  0  0  0.126763  0  1.040514  0  0  0.130125  0  1.038336  0  0  0.121509  0.124806  0  1.041564  0
H  H22  1  0.41483259  0.40309799  0.95195795  1  0  0.105154  0  0.95159  0  0  0.115877  0  1.010136  0  0  0.118088  0  1.009563  0  0  0.117664  0.114293  0  1.010649  0
H  H23  1  0.58516852  0.59690311  0.04804195  1  0  0.105126  0  0.951683  0  0  0.115857  0  1.01022  0  0  0.118067  0  1.009648  0  0  0.117643  0.11427  0  1.01073  0
H  H24  1  0.82707446  0.53018729  0.24147945  1  0  0.078628  0  0.916307  0  0  0.093855  0  0.980237  0  0  0.094405  0  0.980526  0  0  0.111912  0.09332  0  0.980166  0
H  H25  1  0.17292562  0.46981164  0.75852253  1  0  0.078609  0  0.916321  0  0  0.093826  0  0.980258  0  0  0.094375  0  0.980548  0  0  0.111909  0.093291  0  0.98019  0
H  H26  1  0.92758940  0.68474862  0.10780466  1  0  0.07678  0  0.950744  0  0  0.090305  0  1.019682  0  0  0.091203  0  1.018414  0  0  0.107667  0.089586  0  1.020438  0
H  H27  1  0.07241060  0.31525140  0.89219782  1  0  0.07678  0  0.950741  0  0  0.090298  0  1.019684  0  0  0.091195  0  1.018416  0  0  0.107665  0.089595  0  1.020425  0
H  H28  1  0.09247462  0.67093155  0.26263714  1  0  0.079116  0  0.935869  0  0  0.099861  0  0.993285  0  0  0.100398  0  0.994087  0  0  0.093213  0.099398  0  0.992781  0
H  H29  1  0.90752547  0.32906738  0.73736576  1  0  0.07912  0  0.935882  0  0  0.099858  0  0.993297  0  0  0.100399  0  0.994095  0  0  0.093229  0.099395  0  0.992795  0
H  H30  1  0.88077229  0.69505477  0.33418859  1  0  0.078681  0  0.929426  0  0  0.100804  0  0.985323  0  0  0.100753  0  0.987054  0  0  0.095851  0.10082  0  0.984112  0
H  H31  1  0.11922769  0.30494525  0.66581206  1  0  0.078688  0  0.92945  0  0  0.100805  0  0.985347  0  0  0.100754  0  0.987079  0  0  0.095845  0.100821  0  0.984134  0
H  H32  1  0.07955484  0.40190945  0.42020680  1  0  0.05775  0  0.940248  0  0  0.07613  0  1.002143  0  0  0.076914  0  1.002507  0  0  0.085457  0.075502  0  1.001913  0
H  H33  1  0.92044280  0.59808947  0.57979584  1  0  0.057766  0  0.940244  0  0  0.076165  0  1.002117  0  0  0.076954  0  1.002477  0  0  0.085466  0.075543  0  1.001878  0
H  H34  1  0.86836746  0.42979901  0.48847332  1  0  0.057515  0  0.949727  0  0  0.079817  0  1.009394  0  0  0.079511  0  1.011221  0  0  0.086718  0.079924  0  1.008184  0
H  H35  1  0.13163001  0.57020208  0.51152939  1  0  0.057417  0  0.949666  0  0  0.079722  0  1.009346  0  0  0.079415  0  1.011176  0  0  0.086662  0.079828  0  1.008135  0
H  H36  1  0.19132691  0.89434926  0.97482516  1  0  0.419815  0  0.889338  0  0  0.387868  0  0.954865  0  0  0.399915  0  0.937601  0  0  0.2794  0.379377  0  0.966948  0
H  H37  1  0.80867307  0.10565076  0.02517549  1  0  0.419799  0  0.889363  0  0  0.387849  0  0.954896  0  0  0.399896  0  0.937631  0  0  0.279386  0.379359  0  0.966979  0
H  H38  1  0.37500102  0.91783677  0.95629858  1  0  0.39825  0  0.921727  0  0  0.365898  0  0.989366  0  0  0.377411  0  0.972734  0  0  0.276998  0.357753  0  1.001073  0
H  H39  1  0.62499764  0.08216432  0.04370106  1  0  0.398243  0  0.921731  0  0  0.365888  0  0.989376  0  0  0.377402  0  0.972742  0  0  0.277003  0.357744  0  1.001081  0
C  C40  1  0.49760353  0.85156204  0.20403730  1  0  0.729382  0  3.810655  0  0  0.68101  0  4.105625  0  0  0.714943  0  4.098737  0  0  0.217269  0.657812  0  4.109859  0
C  C41  1  0.50239643  0.14843798  0.79596152  1  0  0.729406  0  3.810637  0  0  0.681025  0  4.105626  0  0  0.714957  0  4.098738  0  0  0.21729  0.657824  0  4.109866  0
C  C42  1  0.37849845  0.75446374  0.33593890  1  0  -0.326605  0  3.698127  0  0  -0.373077  0  3.942078  0  0  -0.37866  0  3.948251  0  0  -0.165477  -0.369162  0  3.937859  0
C  C43  1  0.62150142  0.24553736  0.66405950  1  0  -0.326551  0  3.698124  0  0  -0.373009  0  3.942035  0  0  -0.378588  0  3.948204  0  0  -0.165449  -0.369091  0  3.937817  0
C  C44  1  0.39907969  0.76082184  0.46525591  1  0  0.120348  0  3.765454  0  0  0.142775  0  4.004235  0  0  0.143313  0  4.029145  0  0  -0.012547  0.142582  0  3.987078  0
C  C45  1  0.60092261  0.23917928  0.53474092  1  0  0.120335  0  3.76544  0  0  0.142762  0  4.004223  0  0  0.1433  0  4.029132  0  0  -0.01256  0.142567  0  3.987073  0
C  C46  1  0.31738571  0.87202016  0.50815013  1  0  -0.173239  0  3.665182  0  0  -0.199694  0  3.906756  0  0  -0.203277  0  3.927149  0  0  -0.091874  -0.197071  0  3.892749  0
C  C47  1  0.68261558  0.12797878  0.49185152  1  0  -0.17324  0  3.665075  0  0  -0.199686  0  3.90668  0  0  -0.203269  0  3.927073  0  0  -0.091892  -0.197064  0  3.892676  0
C  C48  1  0.34592391  0.88743786  0.61984077  1  0  0.126201  0  3.75012  0  0  0.148434  0  3.986551  0  0  0.149074  0  4.011644  0  0  -0.008155  0.147946  0  3.969626  0
C  C49  1  0.65407473  0.11256324  0.38015613  1  0  0.126152  0  3.750047  0  0  0.148374  0  3.986505  0  0  0.149014  0  4.011597  0  0  -0.008166  0.147885  0  3.96958  0
C  C50  1  0.45427131  0.78713512  0.69218259  1  0  -0.129719  0  3.731714  0  0  -0.152921  0  3.980197  0  0  -0.155828  0  4.001449  0  0  -0.096834  -0.151235  0  3.966304  0
C  C51  1  0.54573117  0.21286383  0.30781600  1  0  -0.129654  0  3.731708  0  0  -0.152835  0  3.980201  0  0  -0.155741  0  4.001453  0  0  -0.096814  -0.15115  0  3.966306  0
C  C52  1  0.53395378  0.67425853  0.65194383  1  0  -0.071886  0  3.820727  0  0  -0.082064  0  4.073472  0  0  -0.083022  0  4.094266  0  0  -0.098609  -0.081494  0  4.059562  0
C  C53  1  0.46604739  0.32574150  0.34805375  1  0  -0.071882  0  3.820644  0  0  -0.082085  0  4.07338  0  0  -0.083044  0  4.094175  0  0  -0.098586  -0.081513  0  4.059467  0
C  C54  1  0.50807298  0.66210064  0.53794959  1  0  -0.146957  0  3.762131  0  0  -0.172067  0  4.014625  0  0  -0.17507  0  4.036046  0  0  -0.103328  -0.16999  0  4.000063  0
C  C55  1  0.49192934  0.33790048  0.46204907  1  0  -0.146962  0  3.762055  0  0  -0.17208  0  4.014561  0  0  -0.175084  0  4.035983  0  0  -0.103341  -0.170011  0  3.999994  0
C  C56  1  0.26163217  0.01267859  0.65930305  1  0  -0.312377  0  3.695657  0  0  -0.353683  0  3.932399  0  0  -0.359731  0  3.940042  0  0  -0.163252  -0.349465  0  3.927221  0
C  C57  1  0.73836901  0.98732143  0.34069636  1  0  -0.312367  0  3.695635  0  0  -0.353692  0  3.93242  0  0  -0.359741  0  3.940063  0  0  -0.163236  -0.349469  0  3.927235  0
C  C58  1  0.08859120  0.98029425  0.75213151  1  0  0.694097  0  3.851911  0  0  0.648878  0  4.146659  0  0  0.682039  0  4.141325  0  0  0.200994  0.626381  0  4.14969  0
C  C59  1  0.91141000  0.01970577  0.24786881  1  0  0.694116  0  3.851999  0  0  0.648892  0  4.146763  0  0  0.682055  0  4.141425  0  0  0.200956  0.626396  0  4.149792  0
C  C60  1  0.06254151  0.34967000  0.17718450  1  0  0.163472  0  3.669009  0  0  0.10132  0  3.935907  0  0  0.115975  0  3.949309  0  0  0.141912  0.092123  0  3.925896  0
C  C61  1  0.93745829  0.65033219  0.82281439  1  0  0.163402  0  3.668883  0  0  0.101251  0  3.935792  0  0  0.115903  0  3.949194  0  0  0.141903  0.092054  0  3.92578  0
C  C62  1  0.21839551  0.53461579  0.04673416  1  0  -0.070128  0  3.670891  0  0  -0.109837  0  3.929771  0  0  -0.10923  0  3.949236  0  0  6.2e-05  -0.11031  0  3.916434  0
C  C63  1  0.78160455  0.46538315  0.95326599  1  0  -0.070231  0  3.670757  0  0  -0.109937  0  3.929647  0  0  -0.10933  0  3.949109  0  0  -7e-06  -0.110411  0  3.916313  0
C  C64  1  0.29739066  0.41437599  0.02351894  1  0  -0.001585  0  3.768784  0  0  -0.034705  0  4.035264  0  0  -0.032786  0  4.056953  0  0  -0.005657  -0.035941  0  4.020458  0
C  C65  1  0.70260548  0.58562618  0.97648093  1  0  -0.001489  0  3.768717  0  0  -0.034618  0  4.0352  0  0  -0.032697  0  4.056886  0  0  -0.005561  -0.035848  0  4.020387  0
C  C66  1  0.94126358  0.58433620  0.19837543  1  0  0.008532  0  3.62163  0  0  -0.056546  0  3.88401  0  0  -0.051487  0  3.894224  0  0  -0.053001  -0.059751  0  3.876795  0
C  C67  1  0.05873649  0.41566274  0.80162655  1  0  0.008566  0  3.621603  0  0  -0.056494  0  3.88396  0  0  -0.051436  0  3.894178  0  0  -0.052963  -0.059712  0  3.876745  0
C  C68  1  0.97781932  0.61627085  0.30924279  1  0  -0.128195  0  3.678925  0  0  -0.170141  0  3.939419  0  0  -0.171661  0  3.953419  0  0  -0.164712  -0.1689  0  3.929622  0
C  C69  1  0.02218066  0.38372917  0.69075785  1  0  -0.128218  0  3.679007  0  0  -0.170148  0  3.939484  0  0  -0.171671  0  3.953486  0  0  -0.164718  -0.168905  0  3.929687  0
C  C70  1  0.98426218  0.48248712  0.44433590  1  0  -0.103913  0  3.701401  0  0  -0.143599  0  3.964141  0  0  -0.144413  0  3.979203  0  0  -0.168416  -0.142943  0  3.953599  0
C  C71  1  0.01573547  0.51751180  0.55566765  1  0  -0.10386  0  3.70132  0  0  -0.143556  0  3.964051  0  0  -0.144374  0  3.979112  0  0  -0.168387  -0.142897  0  3.953498  0
N  N72  1  0.19898125  0.29967397  0.10573143  1  0  -0.406846  0  3.275037  0  0  -0.331792  0  3.562516  0  0  -0.354065  0  3.57969  0  0  -0.365505  -0.316008  0  3.549402  0
N  N73  1  0.80101741  0.70032712  0.89426821  1  0  -0.406816  0  3.275023  0  0  -0.33176  0  3.562494  0  0  -0.354034  0  3.579673  0  0  -0.365491  -0.315973  0  3.549375  0
N  N74  1  0.06958778  0.49170743  0.14377076  1  0  -0.059452  0  3.571068  0  0  0.036541  0  3.787233  0  0  0.021679  0  3.813959  0  0  -0.240694  0.046355  0  3.768822  0
N  N75  1  0.93041220  0.50829259  0.85622988  1  0  -0.059369  0  3.570838  0  0  0.036623  0  3.787001  0  0  0.02176  0  3.813728  0  0  -0.240703  0.046435  0  3.768599  0
O  O76  1  0.46215683  0.98912822  0.15901517  1  0  -0.691741  0  2.057466  0  0  -0.612587  0  2.304126  0  0  -0.642371  0  2.291738  0  0  -0.334079  -0.592078  0  2.312395  0
O  O77  1  0.53784313  0.01087180  0.84098365  1  0  -0.691755  0  2.057487  0  0  -0.612602  0  2.304142  0  0  -0.642383  0  2.291752  0  0  -0.334079  -0.592095  0  2.312423  0
O  O78  1  0.62768595  0.79318172  0.14917781  1  0  -0.639448  0  1.974103  0  0  -0.57221  0  2.220545  0  0  -0.600762  0  2.210844  0  0  -0.320387  -0.552533  0  2.226724  0
O  O79  1  0.37231290  0.20681721  0.85082359  1  0  -0.639467  0  1.974115  0  0  -0.572221  0  2.22056  0  0  -0.600774  0  2.210859  0  0  -0.320389  -0.552543  0  2.226745  0
O  O80  1  0.06453552  0.90815916  0.88647056  1  0  -0.676174  0  1.983736  0  0  -0.604863  0  2.216095  0  0  -0.634461  0  2.205852  0  0  -0.329799  -0.584467  0  2.22255  0
O  O81  1  0.93546567  0.09184086  0.11352884  1  0  -0.676237  0  1.983756  0  0  -0.604922  0  2.216121  0  0  -0.634524  0  2.205881  0  0  -0.329823  -0.584528  0  2.222579  0
O  O82  1  0.97231393  0.02092107  0.69468698  1  0  -0.633794  0  1.91878  0  0  -0.572214  0  2.151827  0  0  -0.600143  0  2.142353  0  0  -0.327678  -0.553084  0  2.157923  0
O  O83  1  0.02768717  0.97908004  0.30531200  1  0  -0.633774  0  1.918863  0  0  -0.572189  0  2.151908  0  0  -0.600118  0  2.142432  0  0  -0.327639  -0.55306  0  2.158005  0
O  O84  1  0.26978706  0.88331314  0.02962533  1  0  -0.84156  0  1.855678  0  0  -0.778324  0  2.047234  0  0  -0.802334  0  2.013142  0  0  -0.595664  -0.760588  0  2.070221  0
O  O85  1  0.73021291  0.11668688  0.97037440  1  0  -0.841538  0  1.855691  0  0  -0.778292  0  2.04724  0  0  -0.802302  0  2.013147  0  0  -0.595659  -0.760556  0  2.070225  0
