# generated using pymatgen
data_CdP2H28C26S4(NO2)2
_symmetry_space_group_name_H-M   'P 1'
_cell_length_a   8.04216339
_cell_length_b   10.40616729
_cell_length_c   17.57350000
_cell_angle_alpha   90.00000000
_cell_angle_beta   90.00000000
_cell_angle_gamma   100.40475131
_symmetry_Int_Tables_number   1
_chemical_formula_structural   CdP2H28C26S4(NO2)2
_chemical_formula_sum   'Cd2 P4 H56 C52 S8 N4 O8'
_cell_volume   1446.50944383
_cell_formula_units_Z   2
loop_
 _symmetry_equiv_pos_site_id
 _symmetry_equiv_pos_as_xyz
  1  'x, y, z'
loop_
 _atom_site_type_symbol
 _atom_site_label
 _atom_site_symmetry_multiplicity
 _atom_site_fract_x
 _atom_site_fract_y
 _atom_site_fract_z
 _atom_site_occupancy
 _atom_site_hle17_bader_spin_density
 _atom_site_hle17_ddec_charge
 _atom_site_hle17_ddec_spin_density
 _atom_site_hle17_ddec_sum_bond_order
 _atom_site_hle17_magmom
 _atom_site_hse06_10hf_bader_spin_density
 _atom_site_hse06_10hf_ddec_charge
 _atom_site_hse06_10hf_ddec_spin_density
 _atom_site_hse06_10hf_ddec_sum_bond_order
 _atom_site_hse06_10hf_magmom
 _atom_site_hse06_bader_spin_density
 _atom_site_hse06_ddec_charge
 _atom_site_hse06_ddec_spin_density
 _atom_site_hse06_ddec_sum_bond_order
 _atom_site_hse06_magmom
 _atom_site_pbe_bader_charge
 _atom_site_pbe_bader_spin_density
 _atom_site_pbe_cm5_charge
 _atom_site_pbe_ddec_charge
 _atom_site_pbe_ddec_spin_density
 _atom_site_pbe_ddec_sum_bond_order
 _atom_site_pbe_magmom
Cd  Cd0  1  0.49999979  0.00000000  0.50000000  1  0  0.758352  0  2.176028  0  0  0.603705  0  2.629331  0  0  0.643243  0  2.603204  0  1.013139  0  0.586083  0.575948  0  2.646082  0
Cd  Cd1  1  0.00000124  0.00000000  0.00000000  1  0  0.758361  0  2.176005  0  0  0.603719  0  2.629307  0  0  0.643256  0  2.603181  0  1.01314  0  0.586088  0.575962  0  2.646059  0
P  P2  1  0.69212595  0.83449100  0.61223547  1  0  0.841234  0  4.628373  0  0  0.754926  0  5.093357  0  0  0.791351  0  5.081813  0  2.061925  0  0.182723  0.729861  0  5.100674  0
P  P3  1  0.80787371  0.16550964  0.11223547  1  0  0.841196  0  4.628372  0  0  0.754894  0  5.093345  0  0  0.791318  0  5.081801  0  2.061955  0  0.182712  0.729829  0  5.100662  0
P  P4  1  0.30787369  0.16550866  0.38776453  1  0  0.841281  0  4.628306  0  0  0.754981  0  5.093287  0  0  0.791406  0  5.081743  0  2.061934  0  0.182738  0.729916  0  5.100603  0
P  P5  1  0.19212695  0.83448905  0.88776396  1  0  0.841149  0  4.628488  0  0  0.754789  0  5.09355  0  0  0.791209  0  5.082011  0  2.061954  0  0.182702  0.729728  0  5.100863  0
H  H6  1  0.00517865  0.01164625  0.58088429  1  0  0.08227  0  0.97138  0  0  0.093528  0  1.047848  0  0  0.09464  0  1.047447  0  0.080602  0  0.083899  0.092696  0  1.048081  0
H  H7  1  0.49482065  0.98835634  0.08088258  1  0  0.082188  0  0.971419  0  0  0.09343  0  1.047915  0  0  0.094542  0  1.047514  0  0.080586  0  0.083859  0.092599  0  1.048148  0
H  H8  1  0.99481976  0.98835341  0.41911628  1  0  0.082248  0  0.971399  0  0  0.093505  0  1.04787  0  0  0.094618  0  1.047468  0  0.080586  0  0.083887  0.092673  0  1.048103  0
H  H9  1  0.50517843  0.01164625  0.91911571  1  0  0.082259  0  0.971405  0  0  0.093521  0  1.047859  0  0  0.094632  0  1.047459  0  0.080597  0  0.083896  0.092689  0  1.048094  0
H  H10  1  0.08727826  0.00131216  0.67585512  1  0  0.090544  0  0.952635  0  0  0.110163  0  1.015102  0  0  0.110521  0  1.015109  0  0.060943  0  0.097254  0.109771  0  1.015263  0
H  H11  1  0.41272081  0.99868946  0.17585626  1  0  0.090517  0  0.95265  0  0  0.110136  0  1.01512  0  0  0.110494  0  1.015128  0  0.060928  0  0.097242  0.109744  0  1.015281  0
H  H12  1  0.91272263  0.99868751  0.32414431  1  0  0.090546  0  0.952623  0  0  0.110162  0  1.015099  0  0  0.11052  0  1.015107  0  0.060947  0  0.097256  0.10977  0  1.01526  0
H  H13  1  0.58727579  0.00131313  0.82414602  1  0  0.090584  0  0.952622  0  0  0.110162  0  1.015138  0  0  0.110521  0  1.015146  0  0.060973  0  0.097242  0.109771  0  1.015299  0
H  H14  1  0.90379546  0.07368501  0.66029818  1  0  0.080545  0  0.963111  0  0  0.095996  0  1.031689  0  0  0.097007  0  1.031145  0  0.054258  0  0.091126  0.095136  0  1.032437  0
H  H15  1  0.59620342  0.92631759  0.16029761  1  0  0.080447  0  0.963062  0  0  0.095918  0  1.031651  0  0  0.096926  0  1.031109  0  0.054069  0  0.091081  0.095058  0  1.032399  0
H  H16  1  0.09620419  0.92631465  0.33970182  1  0  0.080541  0  0.963122  0  0  0.095993  0  1.031699  0  0  0.097003  0  1.031157  0  0.054254  0  0.091123  0.095133  0  1.032447  0
H  H17  1  0.40379443  0.07368501  0.83970182  1  0  0.080534  0  0.963127  0  0  0.095985  0  1.0317  0  0  0.096995  0  1.031158  0  0.054278  0  0.091121  0.095125  0  1.032448  0
H  H18  1  0.75603310  0.70962502  0.75684639  1  0  0.105174  0  0.939223  0  0  0.114869  0  1.001031  0  0  0.117897  0  0.99916  0  0.10265  0  0.105113  0.112627  0  1.002338  0
H  H19  1  0.74396509  0.29037464  0.25684582  1  0  0.105236  0  0.93913  0  0  0.114894  0  1.000981  0  0  0.117922  0  0.999109  0  0.102643  0  0.105137  0.112653  0  1.002287  0
H  H20  1  0.24396655  0.29037464  0.24315418  1  0  0.105185  0  0.939186  0  0  0.114883  0  1.000997  0  0  0.117908  0  0.999125  0  0.102644  0  0.105123  0.112641  0  1.002304  0
H  H21  1  0.25603681  0.70962404  0.74315304  1  0  0.105216  0  0.939216  0  0  0.114878  0  1.001054  0  0  0.117906  0  0.999181  0  0.102713  0  0.10512  0.112636  0  1.002359  0
H  H22  1  0.63346230  0.49284159  0.81116966  1  0  0.101948  0  0.971959  0  0  0.111945  0  1.037198  0  0  0.114872  0  1.036659  0  0.07919  0  0.101173  0.109862  0  1.03774  0
H  H23  1  0.86653589  0.50715807  0.31116966  1  0  0.101958  0  0.971962  0  0  0.111958  0  1.037189  0  0  0.114885  0  1.036651  0  0.079184  0  0.101181  0.109874  0  1.037733  0
H  H24  1  0.36653486  0.50715807  0.18883034  1  0  0.10195  0  0.971967  0  0  0.111949  0  1.037199  0  0  0.114876  0  1.036661  0  0.079188  0  0.101193  0.109866  0  1.037743  0
H  H25  1  0.13346477  0.49284061  0.68883034  1  0  0.101961  0  0.971949  0  0  0.111958  0  1.037186  0  0  0.114884  0  1.036646  0  0.079165  0  0.101189  0.109875  0  1.037729  0
H  H26  1  0.35858475  0.38862523  0.60235297  1  0  0.105235  0  0.985365  0  0  0.114017  0  1.052324  0  0  0.117451  0  1.050957  0  0.091346  0  0.094946  0.111553  0  1.053531  0
H  H27  1  0.14141533  0.61137541  0.10235241  1  0  0.105247  0  0.985392  0  0  0.114047  0  1.052324  0  0  0.117481  0  1.05096  0  0.091329  0  0.094956  0.111583  0  1.053532  0
H  H28  1  0.64141467  0.61137346  0.39764759  1  0  0.105182  0  0.985361  0  0  0.113983  0  1.052307  0  0  0.117418  0  1.050944  0  0.091358  0  0.094925  0.111519  0  1.053517  0
H  H29  1  0.85858454  0.38862523  0.89764703  1  0  0.105257  0  0.985411  0  0  0.114049  0  1.052351  0  0  0.117484  0  1.050985  0  0.09134  0  0.094953  0.111585  0  1.053559  0
H  H30  1  0.47942631  0.60484100  0.54894699  1  0  0.091217  0  0.962851  0  0  0.101416  0  1.025787  0  0  0.103546  0  1.025676  0  0.088631  0  0.096049  0.100045  0  1.025703  0
H  H31  1  0.02057502  0.39515964  0.04894586  1  0  0.091216  0  0.962821  0  0  0.101413  0  1.025768  0  0  0.103542  0  1.025659  0  0.088616  0  0.096051  0.100045  0  1.025676  0
H  H32  1  0.52057334  0.39515866  0.45105357  1  0  0.091224  0  0.962832  0  0  0.101424  0  1.025761  0  0  0.103555  0  1.025648  0  0.088617  0  0.096043  0.100048  0  1.02569  0
H  H33  1  0.97942757  0.60484198  0.95105244  1  0  0.091174  0  0.962813  0  0  0.101381  0  1.025736  0  0  0.103512  0  1.025624  0  0.088655  0  0.096018  0.100001  0  1.025679  0
H  H34  1  0.19193881  0.26286233  0.68902154  1  0  0.0884  0  0.951859  0  0  0.104401  0  1.018269  0  0  0.105587  0  1.01733  0  0.074849  0  0.097424  0.102781  0  1.019844  0
H  H35  1  0.30806003  0.73713831  0.18902154  1  0  0.088381  0  0.951764  0  0  0.104329  0  1.018249  0  0  0.105516  0  1.017311  0  0.074869  0  0.097385  0.102709  0  1.019824  0
H  H36  1  0.80805858  0.73713831  0.31097846  1  0  0.088423  0  0.951788  0  0  0.104373  0  1.018258  0  0  0.105558  0  1.017322  0  0.07487  0  0.097397  0.102753  0  1.019832  0
H  H37  1  0.69193984  0.26286233  0.81097846  1  0  0.088442  0  0.951841  0  0  0.104392  0  1.0183  0  0  0.105578  0  1.017362  0  0.074856  0  0.09742  0.102772  0  1.019875  0
H  H38  1  0.25698520  0.14263726  0.74919851  1  0  0.089857  0  0.967758  0  0  0.104304  0  1.039363  0  0  0.105302  0  1.038523  0  0.067671  0  0.095155  0.103195  0  1.040664  0
H  H39  1  0.24301263  0.85736435  0.24919794  1  0  0.089842  0  0.967792  0  0  0.104296  0  1.039395  0  0  0.105294  0  1.038557  0  0.06774  0  0.095139  0.103187  0  1.040696  0
H  H40  1  0.74301219  0.85736338  0.25080206  1  0  0.08986  0  0.967773  0  0  0.104317  0  1.039367  0  0  0.105317  0  1.038531  0  0.067759  0  0.095144  0.103208  0  1.040668  0
H  H41  1  0.75698600  0.14263628  0.75080206  1  0  0.089838  0  0.967827  0  0  0.104298  0  1.039414  0  0  0.105297  0  1.038577  0  0.067739  0  0.095141  0.103188  0  1.040715  0
H  H42  1  0.35982419  0.18068103  0.65910433  1  0  0.083578  0  0.960888  0  0  0.102615  0  1.027751  0  0  0.102633  0  1.027926  0  0.059019  0  0.085958  0.103037  0  1.026379  0
H  H43  1  0.14017341  0.81931961  0.15910433  1  0  0.083544  0  0.960919  0  0  0.102597  0  1.02776  0  0  0.102614  0  1.027937  0  0.05901  0  0.085958  0.103019  0  1.026388  0
H  H44  1  0.64017297  0.81931863  0.34089624  1  0  0.083551  0  0.960898  0  0  0.102599  0  1.027747  0  0  0.102616  0  1.027924  0  0.058991  0  0.085949  0.103021  0  1.026376  0
H  H45  1  0.85982375  0.18068005  0.84089624  1  0  0.08356  0  0.960896  0  0  0.10261  0  1.027737  0  0  0.102627  0  1.027913  0  0.059009  0  0.085937  0.103032  0  1.026366  0
H  H46  1  0.19378048  0.83861702  0.60399807  1  0  0.075967  0  0.953301  0  0  0.085103  0  1.019052  0  0  0.087161  0  1.017358  0  0.101091  0  0.109826  0.083554  0  1.020383  0
H  H47  1  0.30621814  0.16138265  0.10399807  1  0  0.075947  0  0.953331  0  0  0.085078  0  1.019087  0  0  0.087136  0  1.017395  0  0.101085  0  0.109821  0.083529  0  1.02042  0
H  H48  1  0.80621747  0.16138069  0.39600193  1  0  0.075964  0  0.953309  0  0  0.085089  0  1.019078  0  0  0.087147  0  1.017386  0  0.101158  0  0.109823  0.083539  0  1.020414  0
H  H49  1  0.69378344  0.83861995  0.89600193  1  0  0.07594  0  0.953307  0  0  0.08506  0  1.019094  0  0  0.087118  0  1.017401  0  0.101151  0  0.10981  0.083511  0  1.02043  0
H  H50  1  0.98856447  0.63271873  0.61005321  1  0  0.107085  0  0.967474  0  0  0.115796  0  1.031997  0  0  0.118722  0  1.031341  0  0.121745  0  0.106567  0.113585  0  1.032896  0
H  H51  1  0.51143519  0.36728191  0.11005491  1  0  0.107084  0  0.967464  0  0  0.115792  0  1.031987  0  0  0.11872  0  1.031328  0  0.121721  0  0.10655  0.11358  0  1.032887  0
H  H52  1  0.01143517  0.36728093  0.38994566  1  0  0.107059  0  0.967472  0  0  0.115769  0  1.032012  0  0  0.118698  0  1.031351  0  0.121733  0  0.106552  0.113558  0  1.032911  0
H  H53  1  0.48856593  0.63271873  0.88994566  1  0  0.10707  0  0.967463  0  0  0.11578  0  1.031996  0  0  0.118708  0  1.031336  0  0.121727  0  0.106557  0.113569  0  1.032895  0
H  H54  1  0.16088739  0.54277098  0.38531823  1  0  0.108975  0  0.964982  0  0  0.117465  0  1.028522  0  0  0.120172  0  1.02857  0  0.090175  0  0.106245  0.115433  0  1.028902  0
H  H55  1  0.33911472  0.45722770  0.88531880  1  0  0.108999  0  0.964983  0  0  0.11749  0  1.028514  0  0  0.120199  0  1.028561  0  0.090195  0  0.106252  0.115459  0  1.028894  0
H  H56  1  0.83911327  0.45722770  0.61468177  1  0  0.108978  0  0.964976  0  0  0.117467  0  1.02851  0  0  0.120193  0  1.028536  0  0.090182  0  0.10626  0.115435  0  1.028891  0
H  H57  1  0.66088640  0.54277293  0.11468177  1  0  0.108997  0  0.964967  0  0  0.11749  0  1.0285  0  0  0.120198  0  1.028546  0  0.090181  0  0.106265  0.115458  0  1.028879  0
H  H58  1  0.34497654  0.75949090  0.38682391  1  0  0.073614  0  0.950925  0  0  0.080221  0  1.020541  0  0  0.082587  0  1.018635  0  0.075335  0  0.106544  0.078596  0  1.021926  0
H  H59  1  0.15502456  0.24050876  0.88682334  1  0  0.07362  0  0.950911  0  0  0.08023  0  1.020519  0  0  0.082595  0  1.018614  0  0.075333  0  0.106543  0.078605  0  1.021905  0
H  H60  1  0.65502310  0.24050876  0.61317666  1  0  0.073675  0  0.950885  0  0  0.080312  0  1.020462  0  0  0.08268  0  1.018552  0  0.075314  0  0.106586  0.078687  0  1.021847  0
H  H61  1  0.84497679  0.75949286  0.11317666  1  0  0.07367  0  0.950899  0  0  0.0803  0  1.020486  0  0  0.082667  0  1.018577  0  0.075308  0  0.10658  0.078674  0  1.021872  0
C  C62  1  0.97319506  0.99765478  0.64147893  1  0  -0.052182  0  3.617036  0  0  -0.147474  0  3.877471  0  0  -0.140608  0  3.880449  0  0.351929  0  -0.147245  -0.151972  0  3.875362  0
C  C63  1  0.52680110  0.00234684  0.14147666  1  0  -0.051945  0  3.616918  0  0  -0.147231  0  3.87731  0  0  -0.140367  0  3.880295  0  0.352269  0  -0.147156  -0.15173  0  3.875199  0
C  C64  1  0.02680459  0.00234488  0.35852164  1  0  -0.052157  0  3.617038  0  0  -0.147451  0  3.877482  0  0  -0.140586  0  3.880458  0  0.351929  0  -0.147233  -0.151949  0  3.875373  0
C  C65  1  0.47319403  0.99765478  0.85852164  1  0  -0.052188  0  3.617052  0  0  -0.14747  0  3.87747  0  0  -0.140606  0  3.880447  0  0.351891  0  -0.14723  -0.151966  0  3.875355  0
C  C66  1  0.62209827  0.67278496  0.64961789  1  0  -0.194152  0  3.803548  0  0  -0.160808  0  4.049864  0  0  -0.17176  0  4.074385  0  -0.537217  0  -0.040587  -0.154103  0  4.034193  0
C  C67  1  0.87790264  0.32721568  0.14961789  1  0  -0.194155  0  3.803585  0  0  -0.160803  0  4.049873  0  0  -0.171748  0  4.074385  0  -0.537243  0  -0.040592  -0.154099  0  4.034208  0
C  C68  1  0.37790239  0.32721373  0.35038211  1  0  -0.194174  0  3.803523  0  0  -0.160837  0  4.049838  0  0  -0.171788  0  4.074353  0  -0.537174  0  -0.040605  -0.15413  0  4.034164  0
C  C69  1  0.12210526  0.67278203  0.85038211  1  0  -0.194162  0  3.803542  0  0  -0.160847  0  4.049924  0  0  -0.1718  0  4.074446  0  -0.537387  0  -0.040561  -0.154143  0  4.034253  0
C  C70  1  0.66710477  0.64018327  0.72356844  1  0  -0.015978  0  3.73  0  0  -0.039267  0  3.979179  0  0  -0.035361  0  3.997619  0  0.01943  0  -0.079801  -0.040878  0  3.965956  0
C  C71  1  0.83289443  0.35981541  0.22356787  1  0  -0.015971  0  3.729908  0  0  -0.039234  0  3.979085  0  0  -0.035329  0  3.997524  0  0.019428  0  -0.079789  -0.04084  0  3.965847  0
C  C72  1  0.33289837  0.35981541  0.27643099  1  0  -0.015967  0  3.729978  0  0  -0.039262  0  3.979176  0  0  -0.035351  0  3.997609  0  0.019354  0  -0.079807  -0.040872  0  3.965948  0
C  C73  1  0.16710996  0.64018327  0.77643156  1  0  -0.016068  0  3.729947  0  0  -0.039327  0  3.979123  0  0  -0.035421  0  3.997561  0  0.019462  0  -0.079877  -0.040937  0  3.9659  0
C  C74  1  0.59902316  0.51917755  0.75410305  1  0  -0.191659  0  3.751306  0  0  -0.21332  0  4.00859  0  0  -0.220084  0  4.02807  0  -0.060816  0  -0.106225  -0.208645  0  3.994379  0
C  C75  1  0.90097526  0.48082309  0.25410305  1  0  -0.191723  0  3.751291  0  0  -0.213379  0  4.008578  0  0  -0.220146  0  4.028061  0  -0.060819  0  -0.106236  -0.208703  0  3.994371  0
C  C76  1  0.40097649  0.48082211  0.24589695  1  0  -0.191646  0  3.75133  0  0  -0.213312  0  4.008612  0  0  -0.220078  0  4.028094  0  -0.060832  0  -0.106227  -0.208637  0  3.994404  0
C  C77  1  0.09902314  0.51917658  0.74589638  1  0  -0.191651  0  3.751161  0  0  -0.213293  0  4.008456  0  0  -0.220056  0  4.027933  0  -0.06083  0  -0.106202  -0.208617  0  3.994246  0
C  C78  1  0.48438802  0.42887319  0.71181381  1  0  0.27607  0  3.811315  0  0  0.267961  0  4.063644  0  0  0.28109  0  4.07902  0  0.449042  0  0.085386  0.259841  0  4.052483  0
C  C79  1  0.01560958  0.57112745  0.21181381  1  0  0.276124  0  3.811233  0  0  0.267997  0  4.063588  0  0  0.281119  0  4.078966  0  0.449062  0  0.085389  0.259876  0  4.052429  0
C  C80  1  0.51560914  0.57112647  0.28818676  1  0  0.276099  0  3.81143  0  0  0.267997  0  4.06375  0  0  0.281119  0  4.079128  0  0.449044  0  0.085431  0.259876  0  4.052591  0
C  C81  1  0.98439007  0.42887221  0.78818619  1  0  0.276133  0  3.81122  0  0  0.267962  0  4.063642  0  0  0.281091  0  4.079017  0  0.449105  0  0.085368  0.259843  0  4.05248  0
C  C82  1  0.44231579  0.45904206  0.63724528  1  0  -0.215626  0  3.763243  0  0  -0.230363  0  4.008641  0  0  -0.238287  0  4.029006  0  -0.075992  0  -0.11224  -0.225715  0  3.995726  0
C  C83  1  0.05768577  0.54095956  0.13724528  1  0  -0.215591  0  3.763134  0  0  -0.230335  0  4.008538  0  0  -0.238263  0  4.02891  0  -0.075988  0  -0.112217  -0.225688  0  3.995623  0
C  C84  1  0.55768409  0.54095858  0.36275358  1  0  -0.2155  0  3.763123  0  0  -0.230253  0  4.00851  0  0  -0.238183  0  4.028883  0  -0.075984  0  -0.112203  -0.225605  0  3.995595  0
C  C85  1  0.94231761  0.45904010  0.86275528  1  0  -0.215717  0  3.763263  0  0  -0.230449  0  4.008685  0  0  -0.238376  0  4.029051  0  -0.076003  0  -0.112262  -0.2258  0  3.995768  0
C  C86  1  0.51121763  0.58098768  0.60698495  1  0  -0.02566  0  3.765684  0  0  -0.045505  0  4.008683  0  0  -0.04263  0  4.030385  0  -0.036924  0  -0.084365  -0.047739  0  3.994965  0
C  C87  1  0.98878203  0.41901296  0.10698495  1  0  -0.02569  0  3.765564  0  0  -0.04554  0  4.008589  0  0  -0.042667  0  4.030291  0  -0.03688  0  -0.084386  -0.047773  0  3.994872  0
C  C88  1  0.48878077  0.41901198  0.39301505  1  0  -0.025723  0  3.765543  0  0  -0.045559  0  4.008564  0  0  -0.042684  0  4.030264  0  -0.036881  0  -0.084352  -0.047796  0  3.994844  0
C  C89  1  0.01122157  0.58098768  0.89301391  1  0  -0.025529  0  3.76549  0  0  -0.045356  0  4.008484  0  0  -0.04248  0  4.030184  0  -0.036886  0  -0.084291  -0.047594  0  3.994765  0
C  C90  1  0.30054250  0.22054404  0.70807921  1  0  -0.080673  0  3.619961  0  0  -0.177747  0  3.880255  0  0  -0.170944  0  3.883711  0  0.360237  0  -0.147535  -0.182297  0  3.878448  0
C  C91  1  0.19945634  0.77945660  0.20807921  1  0  -0.080589  0  3.619906  0  0  -0.177651  0  3.880218  0  0  -0.170853  0  3.883669  0  0.360161  0  -0.147499  -0.1822  0  3.87841  0
C  C92  1  0.69945590  0.77945563  0.29192136  1  0  -0.080654  0  3.619964  0  0  -0.177708  0  3.880265  0  0  -0.170914  0  3.883725  0  0.360086  0  -0.147499  -0.182257  0  3.878458  0
C  C93  1  0.80054206  0.22054306  0.79192079  1  0  -0.080679  0  3.620035  0  0  -0.177718  0  3.880307  0  0  -0.17092  0  3.883775  0  0.360159  0  -0.147507  -0.182268  0  3.878502  0
C  C94  1  0.17948249  0.77106388  0.55611973  1  0  0.137732  0  3.706087  0  0  0.106183  0  3.96056  0  0  0.112978  0  3.978841  0  0.498133  0  0.045466  0.101704  0  3.948262  0
C  C95  1  0.32051884  0.22893676  0.05612029  1  0  0.137705  0  3.706183  0  0  0.106165  0  3.960647  0  0  0.112958  0  3.978929  0  0.498113  0  0.045429  0.101685  0  3.948351  0
C  C96  1  0.82051817  0.22893481  0.44388027  1  0  0.137718  0  3.706114  0  0  0.106177  0  3.96059  0  0  0.112971  0  3.978871  0  0.498113  0  0.04547  0.101698  0  3.94829  0
C  C97  1  0.67948127  0.77106485  0.94387971  1  0  0.137745  0  3.70609  0  0  0.106195  0  3.960567  0  0  0.112988  0  3.978852  0  0.498105  0  0.045474  0.101716  0  3.948266  0
C  C98  1  0.06682002  0.65305570  0.55951063  1  0  -0.144085  0  3.684081  0  0  -0.164431  0  3.935352  0  0  -0.170999  0  3.955464  0  -0.061441  0  -0.080551  -0.160429  0  3.922197  0
C  C99  1  0.43318085  0.34694299  0.05951120  1  0  -0.144103  0  3.684216  0  0  -0.164461  0  3.935504  0  0  -0.171023  0  3.955611  0  -0.061457  0  -0.080549  -0.160461  0  3.922353  0
C  C100  1  0.93318143  0.34694103  0.44048937  1  0  -0.143962  0  3.684111  0  0  -0.164338  0  3.935371  0  0  -0.170899  0  3.955476  0  -0.061505  0  -0.080493  -0.160339  0  3.922219  0
C  C101  1  0.56681925  0.65305863  0.94048937  1  0  -0.143983  0  3.684119  0  0  -0.164354  0  3.935368  0  0  -0.170916  0  3.955472  0  -0.061515  0  -0.080498  -0.160353  0  3.922214  0
C  C102  1  0.05691748  0.56439373  0.49870658  1  0  0.092168  0  3.740107  0  0  0.105476  0  3.966241  0  0  0.108981  0  3.987416  0  -0.024111  0  0.011808  0.10338  0  3.951245  0
C  C103  1  0.44308362  0.43560593  0.99870714  1  0  0.092205  0  3.740014  0  0  0.105533  0  3.966106  0  0  0.109027  0  3.987297  0  -0.02409  0  0.011832  0.103438  0  3.951109  0
C  C104  1  0.94308318  0.43560496  0.50129342  1  0  0.091952  0  3.740262  0  0  0.105351  0  3.966326  0  0  0.108844  0  3.98752  0  0.011881  0  0.011775  0.103255  0  3.951329  0
C  C105  1  0.55691773  0.56439568  0.00129342  1  0  0.09199  0  3.740257  0  0  0.105394  0  3.966297  0  0  0.108895  0  3.987475  0  0.011909  0  0.011788  0.103296  0  3.951299  0
C  C106  1  0.15995290  0.60439548  0.43527869  1  0  -0.146257  0  3.683407  0  0  -0.164487  0  3.930078  0  0  -0.170893  0  3.950368  0  -0.024008  0  -0.080017  -0.160046  0  3.916503  0
C  C107  1  0.34005045  0.39560321  0.93527869  1  0  -0.146272  0  3.683408  0  0  -0.164505  0  3.930074  0  0  -0.170909  0  3.950364  0  -0.024014  0  -0.080009  -0.160063  0  3.916499  0
C  C108  1  0.84004900  0.39560321  0.56472188  1  0  -0.146119  0  3.683386  0  0  -0.16437  0  3.930034  0  0  -0.170785  0  3.950313  0  -0.023999  0  -0.080012  -0.159929  0  3.916459  0
C  C109  1  0.65995439  0.60439743  0.06472074  1  0  -0.146178  0  3.683365  0  0  -0.164437  0  3.930015  0  0  -0.170841  0  3.950302  0  -0.023999  0  -0.080023  -0.159995  0  3.916439  0
C  C110  1  0.26563885  0.72580569  0.43581074  1  0  0.125014  0  3.729757  0  0  0.094302  0  3.986356  0  0  0.101078  0  4.004272  0  0.509134  0  0.042064  0.089875  0  3.974728  0
C  C111  1  0.23436225  0.27419398  0.93581074  1  0  0.124982  0  3.729779  0  0  0.09427  0  3.986382  0  0  0.101047  0  4.004296  0  0.509142  0  0.042064  0.089842  0  3.974755  0
C  C112  1  0.73436057  0.27419300  0.56418983  1  0  0.12486  0  3.729728  0  0  0.094128  0  3.986343  0  0  0.100902  0  4.004264  0  0.509124  0  0.04202  0.089701  0  3.974714  0
C  C113  1  0.76564034  0.72580764  0.06418983  1  0  0.124902  0  3.729686  0  0  0.094175  0  3.986295  0  0  0.10095  0  4.004215  0  0.509107  0  0.042039  0.08975  0  3.974665  0
S  S114  1  0.72011630  0.83174163  0.49892850  1  0  -0.553831  0  1.951581  0  0  -0.509007  0  2.291654  0  0  -0.526902  0  2.281812  0  -0.760358  0  -0.212205  -0.496007  0  2.297416  0
S  S115  1  0.77988461  0.16825901  0.99892850  1  0  -0.55383  0  1.951583  0  0  -0.509004  0  2.291645  0  0  -0.526903  0  2.281812  0  -0.760377  0  -0.212204  -0.496005  0  2.297408  0
S  S116  1  0.27988335  0.16825804  0.50107207  1  0  -0.553845  0  1.951562  0  0  -0.509005  0  2.291601  0  0  -0.526916  0  2.281788  0  -0.760361  0  -0.212204  -0.496005  0  2.297365  0
S  S117  1  0.22011527  0.83174163  0.00107093  1  0  -0.553815  0  1.951606  0  0  -0.508991  0  2.291698  0  0  -0.526883  0  2.281853  0  -0.760357  0  -0.212202  -0.495991  0  2.297465  0
S  S118  1  0.54048793  0.95651772  0.64921501  1  0  -0.548051  0  1.89617  0  0  -0.504847  0  2.232374  0  0  -0.522607  0  2.220602  0  -0.743337  0  -0.21455  -0.491534  0  2.23967  0
S  S119  1  0.95951275  0.04348194  0.14921501  1  0  -0.548055  0  1.896133  0  0  -0.504848  0  2.232326  0  0  -0.522609  0  2.220555  0  -0.743334  0  -0.214566  -0.491535  0  2.239621  0
S  S120  1  0.45951148  0.04348096  0.35078499  1  0  -0.548076  0  1.896159  0  0  -0.50487  0  2.232357  0  0  -0.522629  0  2.220583  0  -0.743344  0  -0.214566  -0.491557  0  2.239653  0
S  S121  1  0.04048939  0.95651772  0.85078442  1  0  -0.548036  0  1.896136  0  0  -0.504827  0  2.232351  0  0  -0.522584  0  2.22058  0  -0.74332  0  -0.214564  -0.491514  0  2.239646  0
N  N122  1  0.27799883  0.80763721  0.49545224  1  0  -0.322673  0  3.289042  0  0  -0.246545  0  3.543878  0  0  -0.265845  0  3.566778  0  -1.234847  0  -0.326839  -0.233365  0  3.528435  0
N  N123  1  0.22200001  0.19236343  0.99545224  1  0  -0.322639  0  3.288976  0  0  -0.246519  0  3.543817  0  0  -0.265821  0  3.566723  0  -1.234826  0  -0.326837  -0.23334  0  3.528378  0
N  N124  1  0.72199980  0.19236343  0.50454833  1  0  -0.322625  0  3.289007  0  0  -0.246512  0  3.543863  0  0  -0.265812  0  3.566764  0  -1.234848  0  -0.32685  -0.233331  0  3.528418  0
N  N125  1  0.77800009  0.80763819  0.00454833  1  0  -0.322645  0  3.288991  0  0  -0.246528  0  3.543845  0  0  -0.265828  0  3.566746  0  -1.234837  0  -0.326855  -0.233347  0  3.528399  0
O  O126  1  0.87371450  0.86979810  0.65444220  1  0  -0.384905  0  2.322339  0  0  -0.298722  0  2.5735  0  0  -0.319469  0  2.572004  0  -1.276225  0  -0.218241  -0.28412  0  2.574077  0
O  O127  1  0.62628369  0.13020157  0.15444163  1  0  -0.384928  0  2.322361  0  0  -0.298756  0  2.573522  0  0  -0.319501  0  2.572025  0  -1.276349  0  -0.218222  -0.284153  0  2.5741  0
O  O128  1  0.12628515  0.13020157  0.34555780  1  0  -0.38493  0  2.322327  0  0  -0.29875  0  2.573488  0  0  -0.319495  0  2.571992  0  -1.27622  0  -0.218247  -0.284147  0  2.574066  0
O  O129  1  0.37371347  0.86979810  0.84555723  1  0  -0.384887  0  2.322408  0  0  -0.29863  0  2.573491  0  0  -0.319372  0  2.571992  0  -1.27624  0  -0.218211  -0.284027  0  2.574069  0
O  O130  1  0.42078546  0.31498223  0.74826073  1  0  -0.260051  0  2.34965  0  0  -0.18002  0  2.58601  0  0  -0.198807  0  2.58988  0  -1.086599  0  -0.187378  -0.167659  0  2.583299  0
O  O131  1  0.07921339  0.68501841  0.24826073  1  0  -0.26011  0  2.349653  0  0  -0.180056  0  2.586001  0  0  -0.198826  0  2.589863  0  -1.086603  0  -0.18738  -0.167695  0  2.583289  0
O  O132  1  0.57921295  0.68501743  0.25173984  1  0  -0.260125  0  2.349782  0  0  -0.180083  0  2.586125  0  0  -0.198855  0  2.58999  0  -1.08652  0  -0.187429  -0.167722  0  2.583414  0
O  O133  1  0.92078502  0.31498126  0.75173927  1  0  -0.26007  0  2.34961  0  0  -0.180014  0  2.585981  0  0  -0.198803  0  2.589856  0  -1.086613  0  -0.187366  -0.167653  0  2.58327  0
