# generated using pymatgen
data_NiH22C22(N2O3)2
_symmetry_space_group_name_H-M   'P 1'
_cell_length_a   8.52351513
_cell_length_b   10.91116986
_cell_length_c   11.31317211
_cell_angle_alpha   93.28197427
_cell_angle_beta   90.00049514
_cell_angle_gamma   90.00022892
_symmetry_Int_Tables_number   1
_chemical_formula_structural   NiH22C22(N2O3)2
_chemical_formula_sum   'Ni2 H44 C44 N8 O12'
_cell_volume   1050.41657499
_cell_formula_units_Z   2
loop_
 _symmetry_equiv_pos_site_id
 _symmetry_equiv_pos_as_xyz
  1  'x, y, z'
loop_
 _atom_site_type_symbol
 _atom_site_label
 _atom_site_symmetry_multiplicity
 _atom_site_fract_x
 _atom_site_fract_y
 _atom_site_fract_z
 _atom_site_occupancy
 _atom_site_hle17_ddec_charge
 _atom_site_hle17_ddec_spin_density
 _atom_site_hle17_ddec_sum_bond_order
 _atom_site_hle17_magmom
 _atom_site_hse06_10hf_ddec_charge
 _atom_site_hse06_10hf_ddec_spin_density
 _atom_site_hse06_10hf_ddec_sum_bond_order
 _atom_site_hse06_10hf_magmom
 _atom_site_hse06_ddec_charge
 _atom_site_hse06_ddec_spin_density
 _atom_site_hse06_ddec_sum_bond_order
 _atom_site_hse06_magmom
 _atom_site_pbe_cm5_charge
 _atom_site_pbe_ddec_charge
 _atom_site_pbe_ddec_spin_density
 _atom_site_pbe_ddec_sum_bond_order
 _atom_site_pbe_magmom
Ni  Ni0  1  0.74259117  0.49842101  0.74827978  1  0.809225  0.034097  2.027367  0.028  0.814476  -0.02823  2.421546  -0.011  0.912609  -0.029208  2.343447  -0.013  0.618645  0.746124  -0.010659  2.479301  -0.01
Ni  Ni1  1  0.24258925  0.50157896  0.25172078  1  0.809227  -0.034093  2.027359  -0.028  0.814482  0.028232  2.421532  0.011  0.912652  0.029212  2.343415  0.013  0.618645  0.746135  -0.010654  2.479293  -0.01
H  H2  1  0.71786417  0.50048586  0.52073347  1  0.403851  -0.00052  0.904944  -0.001  0.371646  -0.000153  0.976012  0.0  0.383013  -0.000192  0.959569  0.0  0.282208  0.36356  -7.4e-05  0.987696  0.0
H  H3  1  0.21786482  0.49951497  0.47926962  1  0.403762  0.00052  0.905011  0.001  0.371554  0.000153  0.976129  0.0  0.382917  0.000192  0.959696  0.0  0.282189  0.363466  -7.4e-05  0.987807  0.0
H  H4  1  0.88188785  0.42321379  0.52124337  1  0.411072  0.000114  0.895293  0.0  0.383735  0.00038  0.955039  0.0  0.394642  0.000243  0.939404  0.0  0.285061  0.376057  0.000534  0.966055  0.0
H  H5  1  0.38189007  0.57678849  0.47875557  1  0.411052  -0.000114  0.895315  0.0  0.383711  -0.000379  0.955068  0.0  0.394621  -0.000244  0.939428  0.0  0.28506  0.376033  0.000534  0.966085  0.0
H  H6  1  0.76836231  0.48728613  0.97521573  1  0.401057  -0.000498  0.915359  -0.001  0.367392  -0.000155  0.98649  0.0  0.37901  -0.000195  0.969623  0.0  0.280319  0.359243  -9.6e-05  0.998284  0.0
H  H7  1  0.26836492  0.51271302  0.02478496  1  0.401026  0.000498  0.9154  0.001  0.367356  0.000155  0.986539  0.0  0.378971  0.000195  0.969678  0.0  0.280311  0.359204  -9.6e-05  0.998338  0.0
H  H8  1  0.60050337  0.56133123  0.97738550  1  0.414473  1e-06  0.889499  0.0  0.386447  0.000307  0.95051  0.0  0.397437  0.000184  0.934652  0.0  0.287414  0.378796  0.000467  0.961552  0.0
H  H9  1  0.10050674  0.43866824  0.02261321  1  0.414429  -1e-06  0.889574  0.0  0.386423  -0.000307  0.950546  0.0  0.397414  -0.000184  0.934687  0.0  0.287389  0.378773  0.000467  0.961587  0.0
H  H10  1  0.27334958  0.19638468  0.51759364  1  0.081016  -1.5e-05  0.941221  0.0  0.094647  -9e-06  1.005805  0.0  0.094995  -9e-06  1.005953  0.0  0.110262  0.094086  -1.8e-05  1.00629  0.0
H  H11  1  0.77335006  0.80360987  0.48240244  1  0.081091  1.3e-05  0.941042  0.0  0.094681  9e-06  1.005643  0.0  0.095027  1e-05  1.005792  0.0  0.110289  0.094122  -1.8e-05  1.006133  0.0
H  H12  1  0.17059216  0.16512614  0.64750199  1  0.093683  0.000145  0.925535  0.0  0.109904  8e-05  0.98807  0.0  0.110013  6.1e-05  0.989044  0.0  0.117936  0.109835  8.4e-05  0.987445  0.0
H  H13  1  0.67059250  0.83486987  0.35249172  1  0.093696  -0.000144  0.925546  0.0  0.109862  -8e-05  0.988101  0.0  0.10997  -6.1e-05  0.989075  0.0  0.117915  0.109795  8.4e-05  0.987479  0.0
H  H14  1  0.61076047  0.24757565  0.63540812  1  0.10583  0.000122  0.933748  0.0  0.114345  0.000153  0.996802  0.0  0.11671  0.000129  0.993426  0.0  0.137514  0.112497  0.00019  0.999671  0.0
H  H15  1  0.11076230  0.75242204  0.36459234  1  0.105864  -0.000123  0.933672  0.0  0.11437  -0.000153  0.99673  0.0  0.116737  -0.000129  0.99335  0.0  0.137513  0.112521  0.00019  0.999603  0.0
H  H16  1  0.38355203  0.54339782  0.82019537  1  0.120488  0.000179  0.955755  0.0  0.12722  0.000299  1.016538  0.0  0.129936  0.00024  1.014951  0.0  0.120479  0.125286  0.000346  1.01773  0.0
H  H17  1  0.88355081  0.45660440  0.17979562  1  0.120522  -0.000179  0.955731  0.0  0.127252  -0.000299  1.016499  0.0  0.129966  -0.00024  1.014916  0.0  0.120478  0.125317  0.000346  1.01769  0.0
H  H18  1  0.15774993  0.37252202  0.73948390  1  0.129551  0.000244  0.953563  0.0  0.137583  0.000228  1.014863  0.0  0.14  0.000181  1.014195  0.0  0.124786  0.134863  0.00036  1.016972  0.0
H  H19  1  0.65774933  0.62747940  0.26050379  1  0.129592  -0.000245  0.953571  0.0  0.137631  -0.000228  1.014834  0.0  0.140046  -0.000181  1.014168  0.0  0.124782  0.134912  0.00036  1.016946  0.0
H  H20  1  0.31359605  0.82343087  0.88178960  1  0.097031  9.2e-05  0.921157  0.0  0.111484  4.5e-05  0.985308  0.0  0.112172  3.4e-05  0.985516  0.0  0.11712  0.110914  4.5e-05  0.985345  0.0
H  H21  1  0.81359855  0.17657488  0.11821347  1  0.096984  -9.1e-05  0.921237  0.0  0.111459  -4.5e-05  0.985341  0.0  0.112144  -3.5e-05  0.985555  0.0  0.117111  0.110893  4.5e-05  0.985378  0.0
H  H22  1  0.17570043  0.79221406  0.99166506  1  0.091472  3e-05  0.91058  0.0  0.109549  2e-05  0.966971  0.0  0.110005  1.5e-05  0.966915  0.0  0.11991  0.109101  4.9e-05  0.967165  0.0
H  H23  1  0.67569833  0.20778940  0.00833964  1  0.091444  -3.2e-05  0.910684  0.0  0.109504  -2e-05  0.967072  0.0  0.10996  -1.5e-05  0.967015  0.0  0.119882  0.109059  4.9e-05  0.967269  0.0
H  H24  1  0.94633841  0.65176538  0.94090822  1  0.111889  -0.000103  0.938162  0.0  0.122553  -2.7e-05  0.996806  0.0  0.125136  -5e-06  0.993414  0.0  0.14074  0.120528  -2.6e-05  0.999407  0.0
H  H25  1  0.44633821  0.34823716  0.05909557  1  0.11187  0.000102  0.938189  0.0  0.122552  2.7e-05  0.996837  0.0  0.125136  5e-06  0.993445  0.0  0.140741  0.120557  -2.6e-05  0.999399  0.0
H  H26  1  0.00763776  0.59075387  0.57208656  1  0.111297  0.000101  0.972484  0.0  0.120401  0.000273  1.032017  0.0  0.122923  0.000235  1.030214  0.0  0.121336  0.11842  0.000255  1.033582  0.0
H  H27  1  0.50763677  0.40924076  0.42791926  1  0.111341  -0.0001  0.972587  0.0  0.120423  -0.000273  1.03213  0.0  0.122933  -0.000235  1.030332  0.0  0.121352  0.118441  0.000255  1.033695  0.0
H  H28  1  0.22521441  0.76290033  0.65552563  1  0.111515  6e-05  0.994003  0.0  0.120233  0.000117  1.056313  0.0  0.121756  9.9e-05  1.057509  0.0  0.116191  0.119123  0.000276  1.055781  0.0
H  H29  1  0.72521040  0.23709596  0.34447994  1  0.111411  -5.6e-05  0.994195  0.0  0.120242  -0.000117  1.056387  0.0  0.121759  -9.8e-05  1.05758  0.0  0.116164  0.11913  0.000276  1.055853  0.0
H  H30  1  0.46548869  0.07814464  0.79058127  1  0.095389  2e-06  0.949882  0.0  0.105253  -4e-06  1.010375  0.0  0.10829  -5e-06  1.009959  0.0  0.100815  0.103139  -1.4e-05  1.010829  0.0
H  H31  1  0.96548903  0.92185520  0.20942075  1  0.095359  -3e-06  0.949953  0.0  0.105223  5e-06  1.010437  0.0  0.108263  5e-06  1.010013  0.0  0.100817  0.10311  -1.4e-05  1.01089  0.0
H  H32  1  0.58529810  0.86971924  0.78952382  1  0.100597  -0.00029  0.967703  0.0  0.108873  -0.000227  1.033395  0.0  0.11206  -0.000146  1.031368  0.0  0.102245  0.106503  -0.000304  1.035045  0.0
H  H33  1  0.08529263  0.13028293  0.21047492  1  0.100433  0.000293  0.967693  0.0  0.108724  0.000228  1.03338  0.0  0.111909  0.000146  1.031358  0.0  0.10222  0.106359  -0.000304  1.035034  0.0
H  H34  1  0.41376337  0.78736031  0.43696725  1  0.112902  5.8e-05  0.951965  0.0  0.119831  6.7e-05  1.018799  0.0  0.123593  4.4e-05  1.015631  0.0  0.108575  0.117161  -0.000101  1.020897  0.0
H  H35  1  0.91375468  0.21264114  0.56302833  1  0.112825  -5.7e-05  0.952041  0.0  0.119751  -6.6e-05  1.018885  0.0  0.123512  -4.4e-05  1.015717  0.0  0.108555  0.117084  -0.000101  1.020978  0.0
H  H36  1  0.29445750  0.99646997  0.43672851  1  0.089718  -0.00012  0.963642  0.0  0.101064  -8.5e-05  1.025154  0.0  0.103164  -5.8e-05  1.025888  0.0  0.09759  0.099597  -8.9e-05  1.024875  0.0
H  H37  1  0.79444891  0.00352925  0.56326971  1  0.089857  0.000117  0.963531  0.0  0.101216  8.5e-05  1.02499  0.0  0.103315  5.8e-05  1.025729  0.0  0.097666  0.099751  -8.9e-05  1.024709  0.0
H  H38  1  0.95100272  0.89780004  0.75302098  1  0.096427  1e-06  0.968521  0.0  0.105204  -8e-06  1.031169  0.0  0.108138  -5e-06  1.030683  0.0  0.101088  0.102921  -2.6e-05  1.032041  0.0
H  H39  1  0.45101042  0.10219790  0.24697820  1  0.096377  -1e-06  0.968547  0.0  0.105219  8e-06  1.031119  0.0  0.108151  5e-06  1.030636  0.0  0.101119  0.10293  -2.6e-05  1.03199  0.0
H  H40  1  0.84043593  0.10809484  0.74595062  1  0.091547  -0.000161  0.963726  0.0  0.10134  -0.000136  1.028647  0.0  0.104273  -8.7e-05  1.026765  0.0  0.10026  0.09915  -0.000187  1.030129  0.0
H  H41  1  0.34044427  0.89190272  0.25404959  1  0.091537  0.000161  0.963818  0.0  0.1013  0.000136  1.028767  0.0  0.104234  8.7e-05  1.026885  0.0  0.100244  0.099119  -0.000187  1.03024  0.0
H  H42  1  0.14961391  0.23671648  0.02614009  1  0.117066  9e-05  0.962588  0.0  0.12715  5.9e-05  1.023854  0.0  0.130849  5.6e-05  1.020608  0.0  0.108618  0.124313  -5.3e-05  1.026314  0.0
H  H43  1  0.64962210  0.76328321  0.97386425  1  0.117082  -9e-05  0.962613  0.0  0.127117  -5.9e-05  1.023941  0.0  0.130833  -5.6e-05  1.020671  0.0  0.108592  0.124279  -5.3e-05  1.026401  0.0
H  H44  1  0.26678454  0.02828404  0.03017153  1  0.088455  -9.4e-05  0.984095  0.0  0.09948  -6.7e-05  1.045495  0.0  0.101279  -4.5e-05  1.047107  0.0  0.094623  0.097952  -6.9e-05  1.045117  0.0
H  H45  1  0.76678789  0.97171695  0.96983100  1  0.08848  9.4e-05  0.984197  0.0  0.099485  6.7e-05  1.045597  0.0  0.101285  4.5e-05  1.047208  0.0  0.094628  0.097956  -6.9e-05  1.045218  0.0
C  C46  1  0.28892930  0.17296079  0.60993151  1  -0.03617  0.000313  3.656701  0.0  -0.104158  0.000456  3.904952  0.0  -0.099604  0.000354  3.915337  0.0  -0.042802  -0.107221  0.000538  3.897989  0.0
C  C47  1  0.78893120  0.82703745  0.39006132  1  -0.036182  -0.000307  3.656726  0.0  -0.104041  -0.000455  3.904877  0.0  -0.099485  -0.000354  3.915263  0.0  -0.042799  -0.107116  0.000538  3.897934  0.0
C  C48  1  0.51974793  0.30397930  0.67714733  1  0.156408  -0.002094  3.62933  -0.002  0.101456  -5.6e-05  3.895049  0.0  0.117972  -0.000527  3.907578  -0.001  0.138943  0.090243  0.000395  3.887242  0.0
C  C49  1  0.01974782  0.69601896  0.32284902  1  0.156524  0.002093  3.629223  0.002  0.101566  5.6e-05  3.894943  0.0  0.118084  0.000526  3.907472  0.001  0.138976  0.090356  0.000395  3.887136  0.0
C  C50  1  0.39640772  0.45610016  0.77071628  1  -0.001631  -0.000304  3.719035  0.0  -0.032952  0.000566  3.992527  0.0  -0.029079  0.000227  4.012763  0.0  -0.003523  -0.03588  0.001003  3.979219  0.001
C  C51  1  0.89640869  0.54390026  0.22927382  1  -0.001597  0.000303  3.718912  0.0  -0.032911  -0.000566  3.992381  0.0  -0.02904  -0.000228  4.012623  0.0  -0.003515  -0.035833  0.001003  3.979067  0.001
C  C52  1  0.28458841  0.37200033  0.73342464  1  -0.057187  0.001556  3.6501  0.001  -0.098873  0.001055  3.910103  0.001  -0.097177  0.000966  3.927966  0.001  -0.000139  -0.099567  0.001269  3.898697  0.001
C  C53  1  0.78458905  0.62800431  0.26656581  1  -0.057222  -0.001555  3.650191  -0.001  -0.098914  -0.001057  3.910212  -0.001  -0.097214  -0.000966  3.928073  -0.001  -0.0001  -0.09961  0.001269  3.898807  0.001
C  C54  1  0.18719994  0.82212048  0.90098873  1  -0.039668  0.000222  3.656223  0.0  -0.108422  0.000345  3.910278  0.0  -0.103913  0.000271  3.920352  0.0  -0.041651  -0.111258  0.000438  3.903376  0.0
C  C55  1  0.68720107  0.17788481  0.09901260  1  -0.039618  -0.000218  3.656314  0.0  -0.108316  -0.000345  3.910276  0.0  -0.10381  -0.000271  3.920354  0.0  -0.041596  -0.11116  0.000438  3.903378  0.0
C  C56  1  0.99293020  0.65596424  0.85211992  1  0.163011  -5.1e-05  3.605781  0.0  0.10579  0.000408  3.872576  0.0  0.121641  -7e-06  3.885458  0.0  0.144062  0.095259  0.001178  3.863758  0.001
C  C57  1  0.49293098  0.34403571  0.14788406  1  0.163057  4.9e-05  3.605887  0.0  0.105784  -0.000409  3.872742  0.0  0.12163  7e-06  3.885633  0.0  0.144081  0.095231  0.001178  3.863913  0.001
C  C58  1  0.02608967  0.62904374  0.66122930  1  -0.003882  -7.8e-05  3.729251  0.0  -0.036339  0.000526  3.99996  0.0  -0.0324  0.000208  4.019469  0.0  -0.001228  -0.038936  0.000965  3.986991  0.001
C  C59  1  0.52608630  0.37095553  0.33877686  1  -0.004015  8.2e-05  3.729566  0.0  -0.036458  -0.000528  4.000323  0.0  -0.032506  -0.000208  4.019822  0.0  -0.00128  -0.039052  0.000965  3.987347  0.001
C  C60  1  0.13527395  0.71407059  0.70118881  1  -0.067821  0.001002  3.682002  0.001  -0.105258  0.000977  3.937004  0.001  -0.103574  0.000889  3.955111  0.001  -0.001774  -0.106308  0.001287  3.924947  0.001
C  C61  1  0.63527437  0.28592629  0.29881530  1  -0.067742  -0.001006  3.682119  -0.001  -0.105283  -0.000976  3.937107  -0.001  -0.103588  -0.000889  3.955203  -0.001  -0.001774  -0.106327  0.001288  3.925039  0.001
C  C62  1  0.37224440  0.05138522  0.61311256  1  0.079384  0.001387  3.747923  0.001  0.09898  0.000242  3.985742  0.0  0.100081  0.00027  4.009981  0.0  -0.007987  0.098376  0.000203  3.969712  0.0
C  C63  1  0.87223867  0.94861519  0.38688623  1  0.079357  -0.001411  3.747994  -0.001  0.098903  -0.000242  3.985797  0.0  0.100004  -0.000271  4.010036  0.0  -0.008046  0.098298  0.000203  3.969772  0.0
C  C64  1  0.45475543  0.01528731  0.71245739  1  -0.129638  -0.000753  3.762652  -0.001  -0.150755  0.0  4.01657  0.0  -0.155879  -7.2e-05  4.03914  0.0  -0.095762  -0.147287  4e-06  4.001257  0.0
C  C65  1  0.95475111  0.98471063  0.28754094  1  -0.12958  0.000778  3.762642  0.001  -0.150669  -0.0  4.016527  0.0  -0.15579  7.3e-05  4.039097  0.0  -0.09573  -0.147195  3e-06  4.001214  0.0
C  C66  1  0.52185912  0.89879306  0.71237167  1  -0.078485  0.001356  3.756906  0.001  -0.100373  2.2e-05  4.006492  0.0  -0.098542  0.000133  4.025147  0.0  -0.089792  -0.101539  -7.2e-05  3.993985  0.0
C  C67  1  0.02184851  0.10120523  0.28762823  1  -0.078215  -0.001376  3.756486  -0.001  -0.100115  -2.3e-05  4.006071  0.0  -0.098287  -0.000132  4.024728  0.0  -0.089735  -0.101289  -7.2e-05  3.993574  0.0
C  C68  1  0.50751568  0.81563523  0.61369606  1  -0.081522  -0.008088  3.766017  -0.007  -0.060509  -0.003827  4.001432  -0.003  -0.068645  -0.002956  4.022535  -0.003  -0.024021  -0.055284  -0.004496  3.987562  -0.004
C  C69  1  0.00750661  0.18437128  0.38630503  1  -0.081615  0.008108  3.765999  0.007  -0.060616  0.003826  4.001443  0.003  -0.06875  0.002955  4.022539  0.003  -0.024035  -0.05539  -0.004496  3.987575  -0.004
C  C70  1  0.42563232  0.85179896  0.51386025  1  -0.073946  0.000507  3.741308  0.0  -0.09672  -0.000399  3.991652  0.0  -0.095465  -0.000186  4.010388  0.0  -0.084103  -0.09727  -0.000548  3.97903  -0.001
C  C71  1  0.92562008  0.14820347  0.48613810  1  -0.073795  -0.000534  3.741306  0.0  -0.09657  0.000398  3.991655  0.0  -0.095313  0.000185  4.010389  0.0  -0.084129  -0.097117  -0.000549  3.979021  -0.001
C  C72  1  0.35913658  0.96853052  0.51413377  1  -0.127619  -0.001186  3.740658  -0.001  -0.143861  -0.000269  3.982803  0.0  -0.148684  -0.000258  4.005745  0.0  -0.093623  -0.141096  -0.000305  3.968228  0.0
C  C73  1  0.85912843  0.03146890  0.48586134  1  -0.127858  0.001209  3.740713  0.001  -0.144098  0.000269  3.982897  0.0  -0.148925  0.000259  4.005839  0.0  -0.093674  -0.141331  -0.000305  3.968319  0.0
C  C74  1  0.57804143  0.68878195  0.61601573  1  0.625589  0.002612  3.911681  0.005  0.577811  -0.000872  4.213439  0.001  0.615053  -0.000322  4.206858  0.001  0.207113  0.551972  -0.001081  4.217185  0.001
C  C75  1  0.07803064  0.31122021  0.38398472  1  0.625491  -0.002611  3.911932  -0.005  0.5777  0.000873  4.213702  -0.001  0.614943  0.000322  4.207125  -0.001  0.20701  0.551862  -0.001082  4.217444  0.001
C  C76  1  0.11650286  0.94855921  0.89238025  1  0.078613  0.000605  3.740666  0.0  0.09651  -2.2e-05  3.980628  0.0  0.097527  7.3e-05  4.004306  0.0  -0.009261  0.09607  -0.000222  3.964581  0.0
C  C77  1  0.61650578  0.05144128  0.10762480  1  0.078553  -0.000605  3.740663  0.0  0.096372  2e-05  3.980681  0.0  0.09739  -7.3e-05  4.004358  0.0  -0.009294  0.095934  -0.000222  3.964636  0.0
C  C78  1  0.99660532  0.97175719  0.81222866  1  -0.135076  -0.000362  3.764295  0.0  -0.154016  2.6e-05  4.012875  0.0  -0.158161  -1.3e-05  4.033603  0.0  -0.098159  -0.151119  -3.7e-05  3.999071  0.0
C  C79  1  0.49661315  0.02824184  0.18777354  1  -0.134842  0.000363  3.764367  0.0  -0.153805  -2.5e-05  4.012908  0.0  -0.157948  1.2e-05  4.033631  0.0  -0.098127  -0.150899  -3.7e-05  3.999093  0.0
C  C80  1  0.93425903  0.08956261  0.80782118  1  -0.08  0.000932  3.77299  0.001  -0.101279  -2.6e-05  4.021708  0.0  -0.099511  6.8e-05  4.040114  0.0  -0.090095  -0.102287  -0.000136  4.009343  0.0
C  C81  1  0.43427028  0.91043711  0.19217975  1  -0.080045  -0.00093  3.773221  -0.001  -0.101338  2.6e-05  4.021932  0.0  -0.099544  -6.7e-05  4.04036  0.0  -0.090061  -0.10235  -0.000136  4.009558  0.0
C  C82  1  0.98752999  0.18548298  0.88493750  1  -0.077159  -0.006997  3.776902  -0.006  -0.058203  -0.003457  4.017131  -0.003  -0.066508  -0.002629  4.039366  -0.002  -0.024046  -0.053086  -0.004125  4.002809  -0.004
C  C83  1  0.48753987  0.81451512  0.11506635  1  -0.077338  0.006999  3.777037  0.006  -0.058298  0.003457  4.01716  0.003  -0.06669  0.002628  4.039509  0.002  -0.024174  -0.053182  -0.004126  4.002841  -0.004
C  C84  1  0.10711076  0.16227081  0.96606960  1  -0.071083  -0.000252  3.724  0.0  -0.095244  -0.000749  3.972121  -0.001  -0.09419  -0.000443  3.990978  0.0  -0.085399  -0.095675  -0.000828  3.959414  -0.001
C  C85  1  0.60711807  0.83772782  0.03393530  1  -0.071016  0.000253  3.724119  0.0  -0.095174  0.000749  3.972197  0.001  -0.094106  0.000444  3.991069  0.0  -0.085323  -0.0956  -0.000828  3.959487  -0.001
C  C86  1  0.17212708  0.04528616  0.96811496  1  -0.129533  -0.000833  3.745389  -0.001  -0.143487  -0.000233  3.987391  0.0  -0.148065  -0.000198  4.009796  0.0  -0.096313  -0.140778  -0.000321  3.972897  0.0
C  C87  1  0.67213496  0.95471450  0.03188693  1  -0.12957  0.000829  3.745495  0.001  -0.143477  0.000233  3.987486  0.0  -0.148051  0.000197  4.009876  0.0  -0.096316  -0.140766  -0.000321  3.972987  0.0
C  C88  1  0.91298945  0.31016982  0.88182212  1  0.627216  0.002254  3.915083  0.004  0.578483  -0.000978  4.218706  0.0  0.615705  -0.000422  4.211639  0.001  0.208077  0.552507  -0.001116  4.2241  0.0
C  C89  1  0.41299520  0.68982617  0.11817938  1  0.627276  -0.002254  3.915104  -0.004  0.578502  0.000978  4.218727  0.0  0.615748  0.000421  4.211663  -0.001  0.208047  0.552527  -0.001116  4.224124  0.0
N  N90  1  0.36436595  0.27599063  0.67518481  1  -0.062504  0.000599  3.574824  0.001  0.031535  0.000771  3.791604  0.001  0.017353  0.000575  3.815754  0.001  -0.243317  0.041037  0.000946  3.774806  0.001
N  N91  1  0.86436423  0.72401063  0.32480778  1  -0.062739  -0.0006  3.575187  -0.001  0.031302  -0.000771  3.791938  -0.001  0.017119  -0.000575  3.816085  -0.001  -0.243359  0.040805  0.000946  3.775145  0.001
N  N92  1  0.54203512  0.41236425  0.73516496  1  -0.316074  0.022656  3.359642  0.022  -0.28141  0.024373  3.669147  0.023  -0.315507  0.021009  3.690608  0.019  -0.362949  -0.258574  0.027342  3.656038  0.024
N  N93  1  0.04203497  0.58763500  0.26483070  1  -0.316147  -0.022655  3.359668  -0.022  -0.281468  -0.024374  3.669154  -0.023  -0.315582  -0.02101  3.690633  -0.019  -0.36299  -0.258632  0.027342  3.656045  0.024
N  N94  1  0.11346325  0.72948940  0.82222101  1  -0.065476  0.000966  3.600272  0.001  0.027084  0.001012  3.819549  0.001  0.01296  0.000791  3.843789  0.001  -0.24744  0.036235  0.00128  3.803049  0.001
N  N95  1  0.61346105  0.27051107  0.17778137  1  -0.065505  -0.000968  3.600246  -0.001  0.027052  -0.001012  3.819547  -0.001  0.012929  -0.000792  3.843785  -0.001  -0.247462  0.036204  0.00128  3.803054  0.001
N  N96  1  0.93850007  0.59343755  0.75613112  1  -0.309816  0.018964  3.336315  0.018  -0.274769  0.021798  3.647403  0.02  -0.307523  0.018796  3.668681  0.017  -0.358226  -0.25291  0.024627  3.633361  0.022
N  N97  1  0.43849992  0.40655946  0.24387324  1  -0.309719  -0.018971  3.336318  -0.018  -0.274668  -0.021798  3.647409  -0.02  -0.307432  -0.018798  3.668702  -0.017  -0.358201  -0.252812  0.024628  3.633376  0.022
O  O98  1  0.63596873  0.66149852  0.71511357  1  -0.566548  -0.07602  2.079905  -0.082  -0.536861  -0.044957  2.349467  -0.049  -0.57966  -0.036606  2.344211  -0.04  -0.297258  -0.504984  -0.050186  2.351608  -0.055
O  O99  1  0.13595930  0.33850386  0.28488905  1  -0.566528  0.076022  2.079707  0.082  -0.536868  0.044957  2.349335  0.049  -0.579651  0.036605  2.344037  0.04  -0.297248  -0.505001  -0.050187  2.351499  -0.055
O  O100  1  0.57607322  0.62011027  0.52120160  1  -0.639624  0.000608  2.000202  0.0  -0.578377  0.000223  2.222374  0.0  -0.604541  0.00049  2.212733  0.0  -0.314013  -0.559877  0.000359  2.228667  0.0
O  O101  1  0.07606386  0.37988819  0.47879601  1  -0.639479  -0.000606  2.000416  0.0  -0.57824  -0.000221  2.22262  0.0  -0.604407  -0.000489  2.212985  0.0  -0.313904  -0.55976  0.000359  2.228945  0.0
O  O102  1  0.85154013  0.33535601  0.78312345  1  -0.583669  -0.070535  2.07621  -0.076  -0.554209  -0.042797  2.351518  -0.046  -0.596083  -0.035019  2.34492  -0.038  -0.299992  -0.523693  -0.047383  2.356616  -0.052
O  O103  1  0.35154570  0.66464251  0.21687688  1  -0.58366  0.070535  2.076183  0.076  -0.554214  0.042796  2.351514  0.046  -0.596094  0.035019  2.344909  0.038  -0.299947  -0.523697  -0.047383  2.356613  -0.052
O  O104  1  0.91358734  0.37963832  0.97621821  1  -0.642079  0.000526  2.015066  0.0  -0.580309  9.8e-05  2.239408  0.0  -0.606578  0.000373  2.229206  0.0  -0.314059  -0.561946  0.000263  2.246336  0.0
O  O105  1  0.41359166  0.62036135  0.02378523  1  -0.642117  -0.000526  2.015251  0.0  -0.580271  -9.8e-05  2.239536  0.0  -0.606537  -0.000372  2.229326  0.0  -0.314033  -0.561918  0.000263  2.246493  0.0
O  O106  1  0.77373079  0.42966479  0.55240042  1  -0.815352  0.04022  1.910715  0.042  -0.785774  0.023732  2.109049  0.025  -0.810893  0.019011  2.074894  0.02  -0.581726  -0.767201  0.028498  2.133141  0.028
O  O107  1  0.27372910  0.57033621  0.44759951  1  -0.815272  -0.040219  1.910791  -0.042  -0.785685  -0.023731  2.109147  -0.025  -0.810813  -0.01901  2.075002  -0.02  -0.581708  -0.767101  0.028498  2.133251  0.028
O  O108  1  0.70851730  0.55779111  0.94613778  1  -0.824194  0.040529  1.930322  0.042  -0.795291  0.024274  2.126949  0.026  -0.820105  0.019265  2.091443  0.021  -0.58326  -0.77709  0.029371  2.1519  0.029
O  O109  1  0.20851870  0.44220875  0.05386255  1  -0.824119  -0.040529  1.930441  -0.042  -0.795231  -0.024273  2.127072  -0.026  -0.820048  -0.019264  2.091566  -0.021  -0.583232  -0.777028  0.029371  2.152015  0.029
