# generated using pymatgen
data_ZnH18C22(NO)4
_symmetry_space_group_name_H-M   'P 1'
_cell_length_a   10.33405206
_cell_length_b   10.20846734
_cell_length_c   11.41447726
_cell_angle_alpha   75.43540937
_cell_angle_beta   83.10872771
_cell_angle_gamma   60.31937952
_symmetry_Int_Tables_number   1
_chemical_formula_structural   ZnH18C22(NO)4
_chemical_formula_sum   'Zn2 H36 C44 N8 O8'
_cell_volume   1012.54636471
_cell_formula_units_Z   2
loop_
 _symmetry_equiv_pos_site_id
 _symmetry_equiv_pos_as_xyz
  1  'x, y, z'
loop_
 _atom_site_type_symbol
 _atom_site_label
 _atom_site_symmetry_multiplicity
 _atom_site_fract_x
 _atom_site_fract_y
 _atom_site_fract_z
 _atom_site_occupancy
 _atom_site_hle17_bader_spin_density
 _atom_site_hle17_ddec_charge
 _atom_site_hle17_ddec_spin_density
 _atom_site_hle17_ddec_sum_bond_order
 _atom_site_hle17_magmom
 _atom_site_hse06_10hf_bader_spin_density
 _atom_site_hse06_10hf_ddec_charge
 _atom_site_hse06_10hf_ddec_spin_density
 _atom_site_hse06_10hf_ddec_sum_bond_order
 _atom_site_hse06_10hf_magmom
 _atom_site_hse06_bader_spin_density
 _atom_site_hse06_ddec_charge
 _atom_site_hse06_ddec_spin_density
 _atom_site_hse06_ddec_sum_bond_order
 _atom_site_hse06_magmom
 _atom_site_pbe_bader_spin_density
 _atom_site_pbe_cm5_charge
 _atom_site_pbe_ddec_charge
 _atom_site_pbe_ddec_spin_density
 _atom_site_pbe_ddec_sum_bond_order
 _atom_site_pbe_magmom
Zn  Zn0  1  0.87212817  0.60439508  0.19006738  1  0  0.998704  0  1.871787  0  0  0.808805  0  2.343417  0  0  0.854788  0  2.290517  0  0  0.69353  0.773455  0  2.38274  0
Zn  Zn1  1  0.12787327  0.39560555  0.80993348  1  0  0.998713  0  1.871765  0  0  0.808823  0  2.343392  0  0  0.854769  0  2.290479  0  0  0.693542  0.773459  0  2.382712  0
H  H2  1  0.33916559  0.26133376  0.13349388  1  0  0.09509  0  0.971979  0  0  0.100554  0  1.042351  0  0  0.103568  0  1.040983  0  0  0.098869  0.098454  0  1.043253  0
H  H3  1  0.66083636  0.73866573  0.86651069  1  0  0.095063  0  0.972006  0  0  0.100529  0  1.042372  0  0  0.103543  0  1.041004  0  0  0.098846  0.098429  0  1.043273  0
H  H4  1  0.61426590  0.13103162  0.09978081  1  0  0.083251  0  0.983585  0  0  0.093124  0  1.045271  0  0  0.095828  0  1.045227  0  0  0.095432  0.091202  0  1.045747  0
H  H5  1  0.38573463  0.86896672  0.90022417  1  0  0.083299  0  0.983512  0  0  0.093161  0  1.045202  0  0  0.095872  0  1.045152  0  0  0.09545  0.091239  0  1.045679  0
H  H6  1  0.75867044  0.26107279  0.11456684  1  0  0.091524  0  0.954541  0  0  0.101562  0  1.018236  0  0  0.10458  0  1.016132  0  0  0.103135  0.099477  0  1.019555  0
H  H7  1  0.24133056  0.73892670  0.88543433  1  0  0.091528  0  0.954538  0  0  0.101574  0  1.018223  0  0  0.104589  0  1.016123  0  0  0.103165  0.099489  0  1.019543  0
H  H8  1  0.35667768  0.65280672  0.19032798  1  0  0.09919  0  0.97762  0  0  0.105269  0  1.048277  0  0  0.109114  0  1.045101  0  0  0.102958  0.102565  0  1.050601  0
H  H9  1  0.64332368  0.34719621  0.80967062  1  0  0.099235  0  0.977628  0  0  0.10529  0  1.048303  0  0  0.109137  0  1.045124  0  0  0.102973  0.102581  0  1.050624  0
H  H10  1  0.03947946  0.66979579  0.94278853  1  0  0.108924  0  0.9644  0  0  0.115731  0  1.031382  0  0  0.118705  0  1.027757  0  0  0.136567  0.113083  0  1.034439  0
H  H11  1  0.96052004  0.33020485  0.05721166  1  0  0.10892  0  0.964401  0  0  0.115724  0  1.031382  0  0  0.118697  0  1.027759  0  0  0.136564  0.113076  0  1.034439  0
H  H12  1  0.60082202  0.92865867  0.05988501  1  0  0.107801  0  0.962408  0  0  0.119158  0  1.019876  0  0  0.121265  0  1.01933  0  0  0.121656  0.117478  0  1.02071  0
H  H13  1  0.39917738  0.07134427  0.94011466  1  0  0.107807  0  0.962406  0  0  0.119168  0  1.019861  0  0  0.121277  0  1.019317  0  0  0.121662  0.117489  0  1.020696  0
H  H14  1  0.64545615  0.09998389  0.84229083  1  0  0.134467  0  0.975741  0  0  0.141223  0  1.040913  0  0  0.144965  0  1.038379  0  0  0.122138  0.138169  0  1.043241  0
H  H15  1  0.35454626  0.90001674  0.15771080  1  0  0.134467  0  0.975707  0  0  0.14125  0  1.040852  0  0  0.144994  0  1.038317  0  0  0.122141  0.138196  0  1.043181  0
H  H16  1  0.04426618  0.82981484  0.74493136  1  0  0.094319  0  0.939675  0  0  0.106046  0  1.009917  0  0  0.107462  0  1.00894  0  0  0.116529  0.105081  0  1.010224  0
H  H17  1  0.95573323  0.17018811  0.25506744  1  0  0.094235  0  0.939659  0  0  0.106042  0  1.00986  0  0  0.10746  0  1.008882  0  0  0.11652  0.10509  0  1.010154  0
H  H18  1  0.98762333  0.00833022  0.78526629  1  0  0.099336  0  0.900649  0  0  0.117878  0  0.953268  0  0  0.118841  0  0.95239  0  0  0.119011  0.1169  0  0.95417  0
H  H19  1  0.01237457  0.99167388  0.21473153  1  0  0.099299  0  0.900654  0  0  0.117843  0  0.9533  0  0  0.118809  0  0.952422  0  0  0.119005  0.116866  0  0.954201  0
H  H20  1  0.81206096  0.24390149  0.68187720  1  0  0.102152  0  1.001989  0  0  0.111107  0  1.067144  0  0  0.114325  0  1.065071  0  0  0.099925  0.10886  0  1.068397  0
H  H21  1  0.18793946  0.75610142  0.31811625  1  0  0.102152  0  1.002038  0  0  0.11114  0  1.067146  0  0  0.114367  0  1.065065  0  0  0.09993  0.108891  0  1.068401  0
H  H22  1  0.64886298  0.40867641  0.50034394  1  0  0.084632  0  0.958143  0  0  0.095478  0  1.019914  0  0  0.097889  0  1.01966  0  0  0.097389  0.094006  0  1.019628  0
H  H23  1  0.35113157  0.59132654  0.49965012  1  0  0.084587  0  0.95825  0  0  0.095445  0  1.020003  0  0  0.097857  0  1.019748  0  0  0.097372  0.093974  0  1.019718  0
H  H24  1  0.59981824  0.28256681  0.36254729  1  0  0.080684  0  0.997228  0  0  0.091004  0  1.059658  0  0  0.092101  0  1.061619  0  0  0.094748  0.090127  0  1.058521  0
H  H25  1  0.40017407  0.71743040  0.63745179  1  0  0.080702  0  0.997229  0  0  0.091013  0  1.059671  0  0  0.09211  0  1.061631  0  0  0.094743  0.090115  0  1.058554  0
H  H26  1  0.71176375  0.99908943  0.40526885  1  0  0.091237  0  0.968937  0  0  0.1012  0  1.029528  0  0  0.103794  0  1.0293  0  0  0.099538  0.099424  0  1.029579  0
H  H27  1  0.28823494  0.00090660  0.59473246  1  0  0.091231  0  0.968943  0  0  0.101204  0  1.029522  0  0  0.103797  0  1.029293  0  0  0.09955  0.099429  0  1.029574  0
H  H28  1  0.01536720  0.73061027  0.58841312  1  0  0.092821  0  0.917219  0  0  0.108081  0  0.98109  0  0  0.108661  0  0.981507  0  0  0.117695  0.107419  0  0.981076  0
H  H29  1  0.98463283  0.26938921  0.41158728  1  0  0.092824  0  0.917206  0  0  0.108075  0  0.981101  0  0  0.108672  0  0.981502  0  0  0.117693  0.107409  0  0.9811  0
H  H30  1  0.87026617  0.73774962  0.68966258  1  0  0.10838  0  0.949094  0  0  0.118963  0  1.015221  0  0  0.121081  0  1.013464  0  0  0.117735  0.117393  0  1.01671  0
H  H31  1  0.12973527  0.26225102  0.31033916  1  0  0.108367  0  0.949147  0  0  0.118968  0  1.015253  0  0  0.121096  0  1.013498  0  0  0.11773  0.117401  0  1.016739  0
H  H32  1  0.01078552  0.68775580  0.37734038  1  0  0.106559  0  0.972083  0  0  0.113643  0  1.03915  0  0  0.116268  0  1.036305  0  0  0.135184  0.111816  0  1.040765  0
H  H33  1  0.98921654  0.31224137  0.62266207  1  0  0.106536  0  0.972099  0  0  0.113625  0  1.039157  0  0  0.116299  0  1.036251  0  0  0.135182  0.111799  0  1.040771  0
H  H34  1  0.60667997  0.67722060  0.39098497  1  0  0.112862  0  0.972752  0  0  0.120548  0  1.034247  0  0  0.122907  0  1.033832  0  0  0.117116  0.118658  0  1.034784  0
H  H35  1  0.39331855  0.32278004  0.60901532  1  0  0.112928  0  0.972707  0  0  0.120592  0  1.034235  0  0  0.12295  0  1.033822  0  0  0.117122  0.118703  0  1.034772  0
H  H36  1  0.63449945  0.75551589  0.60117091  1  0  0.117529  0  0.959937  0  0  0.127502  0  1.020892  0  0  0.12968  0  1.020917  0  0  0.123146  0.125856  0  1.021044  0
H  H37  1  0.36550056  0.24448360  0.39883123  1  0  0.117615  0  0.960026  0  0  0.127571  0  1.020997  0  0  0.12975  0  1.021019  0  0  0.123155  0.125931  0  1.021128  0
C  C38  1  0.16479891  0.54946009  0.18164003  1  0  0.626392  0  3.931865  0  0  0.577479  0  4.224819  0  0  0.610688  0  4.218844  0  0  0.195317  0.554704  0  4.228297  0
C  C39  1  0.83520154  0.45054055  0.81836181  1  0  0.626418  0  3.931622  0  0  0.577493  0  4.224588  0  0  0.610696  0  4.218623  0  0  0.195344  0.554718  0  4.228067  0
C  C40  1  0.33042536  0.46510747  0.16487359  1  0  -0.081883  0  3.782286  0  0  -0.056739  0  4.017408  0  0  -0.066601  0  4.0416  0  0  -0.02508  -0.05043  0  4.00186  0
C  C41  1  0.66957368  0.53489202  0.83512778  1  0  -0.081891  0  3.7822  0  0  -0.056755  0  4.017333  0  0  -0.066614  0  4.041526  0  0  -0.025117  -0.050446  0  4.001784  0
C  C42  1  0.40386128  0.31689333  0.14055208  1  0  -0.059361  0  3.717741  0  0  -0.08645  0  3.969232  0  0  -0.08326  0  3.986824  0  0  -0.083702  -0.087552  0  3.95656  0
C  C43  1  0.59613926  0.68310501  0.85945202  1  0  -0.059382  0  3.717783  0  0  -0.086473  0  3.969276  0  0  -0.083284  0  3.98687  0  0  -0.083688  -0.087574  0  3.956601  0
C  C44  1  0.55752406  0.24424003  0.12201720  1  0  -0.077995  0  3.766306  0  0  -0.086515  0  4.015003  0  0  -0.091191  0  4.035777  0  0  -0.093703  -0.083505  0  4.000329  0
C  C45  1  0.44247648  0.75575831  0.87798690  1  0  -0.078062  0  3.766337  0  0  -0.086575  0  4.015043  0  0  -0.091257  0  4.035812  0  0  -0.09373  -0.083565  0  4.00037  0
C  C46  1  0.63895632  0.31733926  0.12965167  1  0  -0.05246  0  3.718163  0  0  -0.079891  0  3.96802  0  0  -0.077137  0  3.986213  0  0  -0.078261  -0.0808  0  3.95487  0
C  C47  1  0.36104414  0.68266138  0.87034929  1  0  -0.05245  0  3.718112  0  0  -0.079879  0  3.967969  0  0  -0.077122  0  3.986164  0  0  -0.078296  -0.080788  0  3.954819  0
C  C48  1  0.56723182  0.46405888  0.15672036  1  0  -0.073248  0  3.771946  0  0  -0.045511  0  4.001058  0  0  -0.05499  0  4.024859  0  0  -0.019635  -0.039399  0  3.985632  0
C  C49  1  0.43277167  0.53593943  0.84327993  1  0  -0.073236  0  3.772052  0  0  -0.045498  0  4.001163  0  0  -0.054974  0  4.024965  0  0  -0.019632  -0.039385  0  3.985734  0
C  C50  1  0.41298623  0.53752049  0.17218695  1  0  -0.072247  0  3.716836  0  0  -0.106325  0  3.959392  0  0  -0.103941  0  3.978961  0  0  -0.078337  -0.10825  0  3.947314  0
C  C51  1  0.58701326  0.46248015  0.82781324  1  0  -0.072258  0  3.716908  0  0  -0.106312  0  3.959469  0  0  -0.103932  0  3.97904  0  0  -0.078319  -0.108231  0  3.94739  0
C  C52  1  0.65111098  0.54318596  0.17305255  1  0  0.631785  0  3.919498  0  0  0.583527  0  4.20881  0  0  0.616757  0  4.203237  0  0  0.198446  0.560607  0  4.212016  0
C  C53  1  0.34888834  0.45681929  0.82694486  1  0  0.631747  0  3.919581  0  0  0.583469  0  4.208922  0  0  0.616697  0  4.203352  0  0  0.198414  0.560549  0  4.212129  0
C  C54  1  0.92677951  0.76260640  0.94845412  1  0  0.185764  0  3.616131  0  0  0.120577  0  3.88129  0  0  0.1358  0  3.891891  0  0  0.148537  0.110971  0  3.87377  0
C  C55  1  0.07322043  0.23739539  0.05154576  1  0  0.185733  0  3.616185  0  0  0.120567  0  3.881318  0  0  0.13579  0  3.891918  0  0  0.148537  0.11096  0  3.873799  0
C  C56  1  0.69856346  0.90250078  0.00337607  1  0  -0.005015  0  3.76328  0  0  -0.036291  0  4.025446  0  0  -0.034378  0  4.045182  0  0  -0.001793  -0.038148  0  4.012802  0
C  C57  1  0.30143603  0.09749986  0.99662412  1  0  -0.005048  0  3.763422  0  0  -0.03632  0  4.025592  0  0  -0.03441  0  4.045332  0  0  -0.0018  -0.038177  0  4.012948  0
C  C58  1  0.71985263  0.98633562  0.89545707  1  0  -0.073617  0  3.645937  0  0  -0.113384  0  3.898631  0  0  -0.112661  0  3.917218  0  0  0.000271  -0.113706  0  3.886762  0
C  C59  1  0.28014775  0.01366732  0.10454251  1  0  -0.073656  0  3.645865  0  0  -0.113444  0  3.898546  0  0  -0.112724  0  3.917136  0  0  0.000254  -0.113764  0  3.886677  0
C  C60  1  0.94728173  0.93835378  0.75877364  1  0  -0.043962  0  3.632236  0  0  -0.112984  0  3.883442  0  0  -0.108189  0  3.893417  0  0  -0.044701  -0.115855  0  3.876393  0
C  C61  1  0.05271670  0.06164917  0.24122526  1  0  -0.043811  0  3.632035  0  0  -0.112927  0  3.883373  0  0  -0.108143  0  3.893357  0  0  -0.044658  -0.115808  0  3.876317  0
C  C62  1  0.85196841  0.03016806  0.64652793  1  0  0.022437  0  3.726821  0  0  0.038936  0  3.965406  0  0  0.036642  0  3.990731  0  0  -0.015097  0.040126  0  3.948472  0
C  C63  1  0.14803056  0.96983372  0.35346943  1  0  0.022527  0  3.726816  0  0  0.03895  0  3.965551  0  0  0.036659  0  3.990876  0  0  -0.01507  0.04014  0  3.948618  0
C  C64  1  0.78902691  0.19130561  0.62030591  1  0  -0.122781  0  3.751896  0  0  -0.14478  0  4.003007  0  0  -0.14717  0  4.024581  0  0  -0.09385  -0.143029  0  3.987976  0
C  C65  1  0.21097350  0.80869731  0.37968841  1  0  -0.122749  0  3.751876  0  0  -0.144736  0  4.002972  0  0  -0.147135  0  4.024548  0  0  -0.093831  -0.142984  0  3.987942  0
C  C66  1  0.69775782  0.28314861  0.51897256  1  0  -0.07384  0  3.787206  0  0  -0.087229  0  4.037824  0  0  -0.089692  0  4.059059  0  0  -0.097114  -0.085076  0  4.022549  0
C  C67  1  0.30224029  0.71685086  0.48102278  1  0  -0.073965  0  3.787267  0  0  -0.087369  0  4.037905  0  0  -0.089829  0  4.05914  0  0  -0.097192  -0.085216  0  4.022626  0
C  C68  1  0.67005408  0.21284953  0.44234457  1  0  -0.062428  0  3.790292  0  0  -0.07463  0  4.03614  0  0  -0.075635  0  4.058466  0  0  -0.094264  -0.073589  0  4.020412  0
C  C69  1  0.32994215  0.78714766  0.55765411  1  0  -0.062371  0  3.79046  0  0  -0.074574  0  4.036316  0  0  -0.075577  0  4.058641  0  0  -0.094241  -0.073512  0  4.020598  0
C  C70  1  0.73374122  0.05201422  0.46691512  1  0  -0.129384  0  3.768706  0  0  -0.148412  0  4.014434  0  0  -0.151991  0  4.036721  0  0  -0.097914  -0.145643  0  3.998226  0
C  C71  1  0.26625651  0.94798181  0.53308454  1  0  -0.129388  0  3.768806  0  0  -0.148421  0  4.014535  0  0  -0.151999  0  4.036816  0  0  -0.097915  -0.145647  0  3.998312  0
C  C72  1  0.82414671  0.95897141  0.56891990  1  0  0.033214  0  3.71182  0  0  0.04759  0  3.950331  0  0  0.04701  0  3.974951  0  0  -0.009831  0.047872  0  3.933593  0
C  C73  1  0.17585331  0.04102807  0.43108049  1  0  0.033213  0  3.711838  0  0  0.04761  0  3.950378  0  0  0.047042  0  3.975005  0  0  -0.009829  0.047893  0  3.933641  0
C  C74  1  0.89336760  0.78433441  0.59659997  1  0  -0.050612  0  3.642409  0  0  -0.116982  0  3.893633  0  0  -0.113092  0  3.903472  0  0  -0.04679  -0.119719  0  3.8873  0
C  C75  1  0.10663393  0.21566392  0.40340140  1  0  -0.050625  0  3.642541  0  0  -0.117005  0  3.89376  0  0  -0.113161  0  3.903667  0  0  -0.046806  -0.119749  0  3.887431  0
C  C76  1  0.90622751  0.69215241  0.41034876  1  0  0.164056  0  3.642569  0  0  0.09979  0  3.909295  0  0  0.114118  0  3.920909  0  0  0.141977  0.090311  0  3.900989  0
C  C77  1  0.09377509  0.30784360  0.58965303  1  0  0.164074  0  3.642639  0  0  0.099804  0  3.909391  0  0  0.114094  0  3.920979  0  0  0.141993  0.090325  0  3.901084  0
C  C78  1  0.69573293  0.68777789  0.42145861  1  0  -0.005228  0  3.749038  0  0  -0.037276  0  4.010151  0  0  -0.035479  0  4.030251  0  0  -0.003793  -0.039051  0  3.997205  0
C  C79  1  0.30427000  0.31222160  0.57854674  1  0  -0.005251  0  3.748895  0  0  -0.037275  0  4.009996  0  0  -0.035479  0  4.030096  0  0  -0.003765  -0.039054  0  3.997054  0
C  C80  1  0.70728361  0.72833043  0.52418689  1  0  -0.063971  0  3.670898  0  0  -0.104163  0  3.92906  0  0  -0.103682  0  3.949443  0  0  0.001579  -0.104958  0  3.916089  0
C  C81  1  0.29271956  0.27166440  0.47581072  1  0  -0.064101  0  3.670876  0  0  -0.104285  0  3.929021  0  0  -0.103805  0  3.949402  0  0  0.001546  -0.105076  0  3.916056  0
N  N82  1  0.82800178  0.76418282  0.03532002  1  0  -0.38119  0  3.339484  0  0  -0.298776  0  3.638993  0  0  -0.319266  0  3.650737  0  0  -0.362328  -0.285031  0  3.630878  0
N  N83  1  0.17199967  0.23581780  0.96467997  1  0  -0.381178  0  3.339568  0  0  -0.298783  0  3.639091  0  0  -0.319264  0  3.65082  0  0  -0.362353  -0.285034  0  3.63097  0
N  N84  1  0.86505686  0.89515643  0.86202079  1  0  -0.054891  0  3.533059  0  0  0.042227  0  3.749768  0  0  0.027338  0  3.775476  0  0  -0.236791  0.051924  0  3.732265  0
N  N85  1  0.13494201  0.10484767  0.13797780  1  0  -0.054848  0  3.532881  0  0  0.042281  0  3.749627  0  0  0.027396  0  3.775337  0  0  -0.236766  0.051977  0  3.732128  0
N  N86  1  0.84126661  0.72990571  0.51575577  1  0  -0.055603  0  3.591655  0  0  0.03792  0  3.810912  0  0  0.023333  0  3.837117  0  0  -0.242842  0.047537  0  3.793194  0
N  N87  1  0.15873403  0.27009031  0.48424709  1  0  -0.055617  0  3.591711  0  0  0.037908  0  3.810967  0  0  0.023334  0  3.837198  0  0  -0.242838  0.047525  0  3.793251  0
N  N88  1  0.82089034  0.66533810  0.35121972  1  0  -0.380959  0  3.311569  0  0  -0.298864  0  3.611609  0  0  -0.31843  0  3.621988  0  0  -0.357588  -0.285102  0  3.604501  0
N  N89  1  0.17911022  0.33466022  0.64878088  1  0  -0.380933  0  3.311706  0  0  -0.298854  0  3.61176  0  0  -0.318408  0  3.622133  0  0  -0.357602  -0.285088  0  3.604647  0
O  O90  1  0.10219059  0.68628970  0.19447031  1  0  -0.62561  0  1.940668  0  0  -0.58194  0  2.165605  0  0  -0.603998  0  2.157082  0  0  -0.328816  -0.565648  0  2.170417  0
O  O91  1  0.89780891  0.31371093  0.80552900  1  0  -0.625682  0  1.940545  0  0  -0.582017  0  2.165495  0  0  -0.604075  0  2.156973  0  0  -0.328891  -0.565722  0  2.170304  0
O  O92  1  0.09493806  0.47296864  0.18127515  1  0  -0.652558  0  2.042855  0  0  -0.578024  0  2.312337  0  0  -0.605904  0  2.298924  0  0  -0.33326  -0.557057  0  2.321654  0
O  O93  1  0.90506392  0.52703083  0.81872592  1  0  -0.652534  0  2.042791  0  0  -0.577955  0  2.312238  0  0  -0.605823  0  2.298814  0  0  -0.333219  -0.556983  0  2.32155  0
O  O94  1  0.79576349  0.45992882  0.18016215  1  0  -0.658758  0  2.019767  0  0  -0.586028  0  2.288335  0  0  -0.614044  0  2.274161  0  0  -0.335774  -0.565202  0  2.298827  0
O  O95  1  0.20423894  0.54007179  0.81983599  1  0  -0.658721  0  2.019897  0  0  -0.585979  0  2.288461  0  0  -0.613985  0  2.274278  0  0  -0.335742  -0.56515  0  2.298947  0
O  O96  1  0.58230780  0.68172688  0.18188189  1  0  -0.615487  0  1.925808  0  0  -0.563712  0  2.149296  0  0  -0.586774  0  2.141544  0  0  -0.317155  -0.546722  0  2.153778  0
O  O97  1  0.41769571  0.31827142  0.81811578  1  0  -0.615489  0  1.925685  0  0  -0.563701  0  2.149164  0  0  -0.58676  0  2.141412  0  0  -0.317141  -0.546708  0  2.153644  0
