# generated using pymatgen
data_Hf3H41C69O16
_symmetry_space_group_name_H-M   'P 1'
_cell_length_a   19.94487825
_cell_length_b   19.96378035
_cell_length_c   20.09253524
_cell_angle_alpha   92.74571860
_cell_angle_beta   91.96267196
_cell_angle_gamma   92.87260861
_symmetry_Int_Tables_number   1
_chemical_formula_structural   Hf3H41C69O16
_chemical_formula_sum   'Hf6 H82 C138 O32'
_cell_volume   7975.73487603
_cell_formula_units_Z   2
loop_
 _symmetry_equiv_pos_site_id
 _symmetry_equiv_pos_as_xyz
  1  'x, y, z'
loop_
 _atom_site_type_symbol
 _atom_site_label
 _atom_site_symmetry_multiplicity
 _atom_site_fract_x
 _atom_site_fract_y
 _atom_site_fract_z
 _atom_site_occupancy
 _atom_site_pbe_bader_charge
 _atom_site_pbe_bader_spin_density
 _atom_site_pbe_cm5_charge
 _atom_site_pbe_ddec_charge
 _atom_site_pbe_ddec_spin_density
 _atom_site_pbe_ddec_sum_bond_order
 _atom_site_pbe_magmom
Hf  Hf0  1  0.18712322  0.13277835  0.04108161  1  2.618882  0  1.502196  2.13971  0  3.349361  0
Hf  Hf1  1  0.22563552  0.99638143  0.13538404  1  2.618161  0  1.500879  2.139048  0  3.345358  0
Hf  Hf2  1  0.02212974  0.06734098  0.01593517  1  2.619563  0  1.502435  2.13893  0  3.345519  0
Hf  Hf3  1  0.09130368  0.09407175  0.17827212  1  2.616879  0  1.501426  2.142094  0  3.337875  0
Hf  Hf4  1  0.15573677  0.96891145  0.97369112  1  2.620641  0  1.505615  2.14077  0  3.35381  0
Hf  Hf5  1  0.06013998  0.93066398  0.11073691  1  2.619016  0  1.504059  2.137574  0  3.358198  0
H  H6  1  0.08481558  0.40988794  0.71363879  1  0.052843  0  0.101469  0.103546  0  1.01216  0
H  H7  1  0.09168255  0.62535213  0.73256590  1  0.0569  0  0.099359  0.096999  0  1.035461  0
H  H8  1  0.05707840  0.50869128  0.90424531  1  0.051347  0  0.099891  0.098997  0  1.028975  0
H  H9  1  0.19115199  0.55937843  0.25009123  1  0.058266  0  0.099889  0.100209  0  1.023106  0
H  H10  1  0.13953825  0.43755243  0.41417743  1  0.056796  0  0.09992  0.097818  0  1.031577  0
H  H11  1  0.14423838  0.65260031  0.43868029  1  0.079773  0  0.101126  0.103367  0  1.012948  0
H  H12  1  0.95636376  0.96609438  0.55920549  1  0.080571  0  0.100577  0.100941  0  1.020973  0
H  H13  1  0.77698530  0.98394060  0.67022105  1  0.076573  0  0.099906  0.098276  0  1.027772  0
H  H14  1  0.76519591  0.97737327  0.45569756  1  0.066623  0  0.101388  0.103224  0  1.013128  0
H  H15  1  0.29647819  0.08910774  0.59645205  1  0.05372  0  0.099733  0.098454  0  1.027325  0
H  H16  1  0.46386194  0.03484112  0.47891984  1  0.073129  0  0.100115  0.098936  0  1.031761  0
H  H17  1  0.48472935  0.04890227  0.69264343  1  0.084599  0  0.100684  0.102188  0  1.014377  0
H  H18  1  0.50080374  0.66816882  0.04319078  1  0.08082  0  0.100888  0.102281  0  1.013463  0
H  H19  1  0.71649390  0.69324090  0.04865274  1  0.053866  0  0.101295  0.101589  0  1.022269  0
H  H20  1  0.59608486  0.86017630  0.00639231  1  0.069328  0  0.101617  0.105881  0  1.010897  0
H  H21  1  0.74609868  0.39846260  0.10889594  1  0.0846  0  0.101513  0.103731  0  1.012412  0
H  H22  1  0.53068969  0.36942774  0.10227053  1  0.058767  0  0.100821  0.100638  0  1.02273  0
H  H23  1  0.65417659  0.20320031  0.13849119  1  0.075832  0  0.101563  0.105855  0  1.010359  0
H  H24  1  0.22933663  0.13343031  0.17618215  1  0.617921  0  0.338599  0.418218  0  0.85409  0
H  H25  1  0.11879247  0.08981772  0.92004692  1  0.623059  0  0.339447  0.420046  0  0.852889  0
H  H26  1  0.96720996  0.02958683  0.13688864  1  0.628813  0  0.338845  0.419198  0  0.852696  0
H  H27  1  0.17864084  0.87352856  0.07047992  1  0.587799  0  0.338749  0.418624  0  0.853912  0
H  H28  1  0.76320316  0.23144274  0.22929781  1  0.062178  0  0.100635  0.100664  0  0.99991  0
H  H29  1  0.80066299  0.30286900  0.03452924  1  0.035014  0  0.102711  0.103761  0  0.99457  0
H  H30  1  0.90621529  0.24109728  0.03191547  1  0.092338  0  0.109747  0.115174  0  0.990143  0
H  H31  1  0.87298890  0.17609958  0.22956724  1  0.099805  0  0.106969  0.109705  0  0.989242  0
H  H32  1  0.48019377  0.28971157  0.03462639  1  0.049958  0  0.100564  0.099342  0  1.005939  0
H  H33  1  0.55187808  0.17088120  0.19310617  1  0.044122  0  0.100834  0.100531  0  1.003667  0
H  H34  1  0.44519548  0.09971052  0.18276403  1  0.080612  0  0.106439  0.108657  0  0.99612  0
H  H35  1  0.37277561  0.22114300  0.02778974  1  0.075182  0  0.110733  0.116647  0  0.995718  0
H  H36  1  0.69856924  0.88780603  0.94960107  1  0.056665  0  0.1006  0.100093  0  1.002355  0
H  H37  1  0.76793110  0.77490518  0.11357359  1  0.048645  0  0.099905  0.098268  0  1.005707  0
H  H38  1  0.87598637  0.84232682  0.11845691  1  0.096235  0  0.109403  0.114438  0  0.999365  0
H  H39  1  0.80581930  0.95821894  0.95801688  1  0.098927  0  0.107754  0.110294  0  0.992884  0
H  H40  1  0.44879702  0.76491657  0.11431879  1  0.061639  0  0.102291  0.103693  0  0.997724  0
H  H41  1  0.48753965  0.83533285  0.91944609  1  0.061497  0  0.101442  0.101628  0  0.998864  0
H  H42  1  0.37964662  0.89413959  0.91973757  1  0.074475  0  0.109515  0.113153  0  0.983764  0
H  H43  1  0.34556523  0.83027496  0.11760835  1  0.092327  0  0.105292  0.106309  0  1.005791  0
H  H44  1  0.70141763  0.62040479  0.13112729  1  0.049151  0  0.099928  0.098997  0  1.004907  0
H  H45  1  0.53149367  0.56337043  0.99884919  1  0.051196  0  0.101829  0.102312  0  0.99988  0
H  H46  1  0.54405449  0.44466137  0.02274264  1  0.059629  0  0.099981  0.099003  0  1.005709  0
H  H47  1  0.71395599  0.50167497  0.15512480  1  0.043337  0  0.101819  0.101958  0  0.999505  0
H  H48  1  0.26950919  0.00869161  0.67738555  1  0.074818  0  0.10141  0.101509  0  1.001054  0
H  H49  1  0.42876270  0.13907311  0.76885311  1  0.06021  0  0.101905  0.103407  0  0.997552  0
H  H50  1  0.36688143  0.14423217  0.87483777  1  0.063891  0  0.107589  0.109716  0  0.992  0
H  H51  1  0.21078129  0.00999918  0.78452198  1  0.079004  0  0.107988  0.11303  0  0.998949  0
H  H52  1  0.41803842  0.07960433  0.40324528  1  0.034908  0  0.100969  0.099781  0  1.010756  0
H  H53  1  0.23713474  0.05873567  0.51406479  1  0.068074  0  0.099969  0.098621  0  1.013896  0
H  H54  1  0.16897426  0.06229051  0.40928685  1  0.058692  0  0.104865  0.105229  0  1.000089  0
H  H55  1  0.34932231  0.07311967  0.29847262  1  0.095354  0  0.107499  0.110718  0  0.999723  0
H  H56  1  0.98537238  0.90780749  0.65274429  1  0.039828  0  0.101095  0.101693  0  1.002769  0
H  H57  1  0.84802678  0.04777089  0.73342284  1  0.08145  0  0.102572  0.102984  0  1.004713  0
H  H58  1  0.91489702  0.05618229  0.84024437  1  0.103846  0  0.111111  0.117067  0  0.995818  0
H  H59  1  0.05368159  0.91913255  0.75951540  1  0.098184  0  0.105957  0.107654  0  0.995851  0
H  H60  1  0.83524566  0.89394227  0.38386483  1  0.095525  0  0.10218  0.104146  0  0.996884  0
H  H61  1  0.97205028  0.04781311  0.47570412  1  0.04162  0  0.102376  0.103303  0  0.998853  0
H  H62  1  0.03166618  0.05529446  0.36899665  1  0.074962  0  0.109359  0.113937  0  0.997877  0
H  H63  1  0.89847554  0.89841976  0.27869241  1  0.06698  0  0.106145  0.108616  0  0.993948  0
H  H64  1  0.68912637  0.05848746  0.48390521  1  0.05338  0  0.101109  0.100631  0  1.001401  0
H  H65  1  0.67287927  0.93235092  0.65122149  1  0.061005  0  0.101378  0.101368  0  1.000163  0
H  H66  1  0.55434421  0.95981329  0.66155652  1  0.048313  0  0.101863  0.101963  0  1.000081  0
H  H67  1  0.57063163  0.08574997  0.49421074  1  0.067098  0  0.100762  0.100223  0  1.002977  0
H  H68  1  0.27124771  0.66972937  0.27416271  1  0.059238  0  0.102238  0.104151  0  0.996024  0
H  H69  1  0.07206715  0.70311231  0.34034416  1  0.075701  0  0.10139  0.101441  0  0.99852  0
H  H70  1  0.07072476  0.80772668  0.27738347  1  0.10864  0  0.10905  0.11433  0  0.993756  0
H  H71  1  0.27233112  0.77835828  0.21726032  1  0.05701  0  0.104264  0.105096  0  1.00214  0
H  H72  1  0.19017785  0.36426723  0.36649545  1  0.070002  0  0.101238  0.099869  0  1.008994  0
H  H73  1  0.15401074  0.47435245  0.19022866  1  0.059814  0  0.100324  0.099797  0  1.010497  0
H  H74  1  0.15488755  0.36861404  0.12082898  1  0.032129  0  0.104859  0.105351  0  0.998111  0
H  H75  1  0.18061711  0.25839640  0.29772522  1  0.048363  0  0.107156  0.110199  0  0.993761  0
H  H76  1  0.07921507  0.59211921  0.96081553  1  0.055233  0  0.099991  0.098574  0  1.015903  0
H  H77  1  0.05490525  0.70275690  0.78277731  1  0.04747  0  0.10042  0.098568  0  1.014675  0
H  H78  1  0.06291297  0.80853283  0.85185132  1  0.089785  0  0.107498  0.11003  0  1.000703  0
H  H79  1  0.07725835  0.69780883  0.02946386  1  0.096722  0  0.106943  0.109443  0  0.988198  0
H  H80  1  0.99456228  0.33508165  0.78480284  1  0.037777  0  0.102644  0.104662  0  0.996814  0
H  H81  1  0.14899258  0.42908464  0.91794548  1  0.082246  0  0.101658  0.102375  0  0.999065  0
H  H82  1  0.15335514  0.32384593  0.97977092  1  0.107031  0  0.109205  0.114432  0  0.995781  0
H  H83  1  0.99554999  0.23166060  0.85031938  1  0.071606  0  0.106243  0.108553  0  0.993548  0
H  H84  1  0.16703424  0.44211053  0.63770969  1  0.062776  0  0.101404  0.101404  0  1.000218  0
H  H85  1  0.03674585  0.60739125  0.63026067  1  0.050872  0  0.100116  0.099549  0  1.004173  0
H  H86  1  0.06064081  0.61921836  0.51172623  1  0.058523  0  0.100456  0.099442  0  1.003182  0
H  H87  1  0.19089829  0.45392207  0.51915107  1  0.050314  0  0.10075  0.10021  0  1.003473  0
C  C88  1  0.07179302  0.45310751  0.81271793  1  0.019739  0  -0.009498  0.074749  0  4.039494  0
C  C89  1  0.08097547  0.45620119  0.74410065  1  -0.065151  0  -0.089108  -0.181573  0  3.934947  0
C  C90  1  0.08703841  0.51865053  0.71483966  1  0.021193  0  -0.008726  0.079031  0  4.030988  0
C  C91  1  0.08302440  0.57741142  0.75533200  1  -0.044661  0  -0.089689  -0.17826  0  3.931146  0
C  C92  1  0.07174487  0.57584666  0.82387352  1  -0.035324  0  -0.009084  0.075452  0  4.025343  0
C  C93  1  0.06634232  0.51270892  0.85143858  1  -0.05573  0  -0.09045  -0.181203  0  3.941904  0
C  C94  1  0.16719341  0.61255020  0.34094131  1  -0.021537  0  -0.008514  0.077596  0  4.035973  0
C  C95  1  0.17732702  0.55421531  0.30170197  1  -0.087769  0  -0.089375  -0.180798  0  3.934913  0
C  C96  1  0.16748894  0.49016024  0.32689262  1  -0.007995  0  -0.009695  0.075818  0  4.021602  0
C  C97  1  0.15025509  0.48640233  0.39386222  1  -0.021781  0  -0.089408  -0.178788  0  3.933329  0
C  C98  1  0.14276863  0.54395260  0.43518162  1  -0.009362  0  -0.009359  0.077895  0  4.034217  0
C  C99  1  0.14995066  0.60706229  0.40758437  1  -0.077284  0  -0.091025  -0.185741  0  3.940537  0
C  C100  1  0.86420998  0.96991877  0.50057068  1  -0.047131  0  -0.008874  0.076321  0  4.036035  0
C  C101  1  0.90194717  0.96881010  0.56065740  1  -0.1291  0  -0.090759  -0.185274  0  3.945896  0
C  C102  1  0.87119753  0.97332687  0.62222341  1  0.039801  0  -0.009611  0.076822  0  4.039612  0
C  C103  1  0.80142961  0.97908453  0.62264831  1  -0.060897  0  -0.088988  -0.179456  0  3.935265  0
C  C104  1  0.76246682  0.98104252  0.56343973  1  -0.003698  0  -0.008447  0.079063  0  4.03158  0
C  C105  1  0.79449103  0.97545537  0.50237584  1  -0.03788  0  -0.089375  -0.181733  0  3.933597  0
C  C106  1  0.38669643  0.06852840  0.65116513  1  0.011144  0  -0.008249  0.07803  0  4.034259  0
C  C107  1  0.34824780  0.07487178  0.59225813  1  -0.029055  0  -0.09033  -0.18234  0  3.940574  0
C  C108  1  0.37494533  0.06420756  0.52923335  1  0.00517  0  -0.008722  0.077845  0  4.026416  0
C  C109  1  0.44235584  0.04736525  0.52675930  1  -0.076555  0  -0.090299  -0.181554  0  3.933948  0
C  C110  1  0.48273790  0.04267124  0.58465462  1  -0.031197  0  -0.00943  0.077944  0  4.032798  0
C  C111  1  0.45435031  0.05346474  0.64702661  1  -0.096076  0  -0.088912  -0.180829  0  3.932744  0
C  C112  1  0.54164056  0.76633293  0.02118837  1  -0.038924  0  -0.007993  0.07901  0  4.03726  0
C  C113  1  0.54662468  0.69922097  0.03732996  1  -0.053225  0  -0.090834  -0.186112  0  3.941249  0
C  C114  1  0.60955009  0.67203265  0.04722233  1  0.001028  0  -0.008944  0.080312  0  4.034989  0
C  C115  1  0.66733513  0.71409784  0.04233682  1  -0.045826  0  -0.090249  -0.183728  0  3.93966  0
C  C116  1  0.66370666  0.78191435  0.02780836  1  -0.005715  0  -0.009164  0.077155  0  4.035546  0
C  C117  1  0.60033605  0.80711045  0.01558989  1  -0.043031  0  -0.090315  -0.186175  0  3.93735  0
C  C118  1  0.70705496  0.29871379  0.12735735  1  0.005314  0  -0.007827  0.078557  0  4.032216  0
C  C119  1  0.70078854  0.36631194  0.11358533  1  -0.043716  0  -0.089814  -0.185346  0  3.938007  0
C  C120  1  0.63731550  0.39262976  0.10457238  1  -0.04649  0  -0.008958  0.080735  0  4.036538  0
C  C121  1  0.58025446  0.34922490  0.10782736  1  -0.062543  0  -0.090812  -0.183892  0  3.940585  0
C  C122  1  0.58507058  0.28087791  0.11964750  1  -0.011498  0  -0.009682  0.074976  0  4.030791  0
C  C123  1  0.64900305  0.25650716  0.13110284  1  -0.047371  0  -0.089929  -0.184735  0  3.931743  0
C  C124  1  0.08092143  0.20988729  0.95691030  1  1.547617  0  0.239344  0.627121  0  4.095441  0
C  C125  1  0.33470154  0.12012944  0.10105991  1  1.541506  0  0.240913  0.62974  0  4.090727  0
C  C126  1  0.15776709  0.24040994  0.16687319  1  1.564895  0  0.240815  0.630783  0  4.08554  0
C  C127  1  0.24783628  0.07265849  0.89911303  1  1.553692  0  0.239791  0.628787  0  4.093617  0
C  C128  1  0.16549080  0.85834357  0.20112697  1  1.551893  0  0.241032  0.633682  0  4.089938  0
C  C129  1  0.91470006  0.94127166  0.04381150  1  1.537726  0  0.24063  0.62946  0  4.091613  0
C  C130  1  0.21663923  0.06029868  0.28191939  1  1.554594  0  0.241304  0.632131  0  4.091812  0
C  C131  1  0.29783156  0.90878520  0.02666392  1  1.56252  0  0.243845  0.636499  0  4.087205  0
C  C132  1  0.02702244  0.99687838  0.87140414  1  1.553019  0  0.238658  0.625791  0  4.100925  0
C  C133  1  0.95419398  0.16151550  0.12297276  1  1.540813  0  0.24429  0.637839  0  4.077755  0
C  C134  1  0.00478861  0.98611198  0.25465542  1  1.537701  0  0.239823  0.628184  0  4.095276  0
C  C135  1  0.08221449  0.82535181  0.98340945  1  1.549583  0  0.242933  0.63322  0  4.085397  0
C  C136  1  0.79528670  0.23464494  0.18654907  1  -0.081338  0  -0.092775  -0.138407  0  3.99327  0
C  C137  1  0.77414680  0.27008089  0.13156798  1  -0.015114  0  -0.004745  0.074206  0  4.001376  0
C  C138  1  0.81648665  0.27512172  0.07732800  1  -0.022188  0  -0.090179  -0.133182  0  3.987327  0
C  C139  1  0.87562012  0.24124083  0.07587427  1  -0.00634  0  -0.082004  -0.086778  0  3.980258  0
C  C140  1  0.89569336  0.20469997  0.13042456  1  -0.072456  0  -0.017096  -0.041377  0  3.978147  0
C  C141  1  0.85646077  0.20357317  0.18683821  1  0.020963  0  -0.084324  -0.093498  0  3.99135  0
C  C142  1  0.47231087  0.24908182  0.06833032  1  -0.04397  0  -0.091437  -0.134016  0  3.992296  0
C  C143  1  0.52335634  0.23636898  0.11548910  1  -0.036628  0  -0.001846  0.080682  0  3.986563  0
C  C144  1  0.51312123  0.18146393  0.15600038  1  -0.019616  0  -0.091181  -0.136436  0  3.980931  0
C  C145  1  0.45336147  0.14175182  0.15075102  1  -0.005823  0  -0.082371  -0.087165  0  3.992172  0
C  C146  1  0.40201785  0.15664546  0.10528246  1  -0.035342  0  -0.020808  -0.053265  0  3.983898  0
C  C147  1  0.41254213  0.21042488  0.06362082  1  -0.018867  0  -0.083604  -0.084169  0  3.988391  0
C  C148  1  0.73699905  0.87840356  0.98747978  1  -0.028116  0  -0.091122  -0.137186  0  3.979591  0
C  C149  1  0.72596242  0.82546421  0.03022912  1  -0.062816  0  -0.000887  0.081908  0  3.991814  0
C  C150  1  0.77653804  0.81393465  0.07823476  1  0.022041  0  -0.092374  -0.135186  0  3.99708  0
C  C151  1  0.83657039  0.85205701  0.08188819  1  -0.025944  0  -0.084122  -0.084857  0  3.991451  0
C  C152  1  0.84774609  0.90419040  0.03840686  1  -0.083346  0  -0.019561  -0.051193  0  3.980917  0
C  C153  1  0.79703979  0.91769358  0.99168744  1  -0.008424  0  -0.080909  -0.084093  0  3.985498  0
C  C154  1  0.43352378  0.79300435  0.07156721  1  -0.051788  0  -0.092165  -0.13563  0  3.997853  0
C  C155  1  0.47550493  0.79667068  0.01698179  1  -0.026378  0  -0.004269  0.075734  0  4.004737  0
C  C156  1  0.45543524  0.83298682  0.96223514  1  0.003981  0  -0.091721  -0.137542  0  3.992258  0
C  C157  1  0.39539221  0.86601914  0.96228509  1  -0.088602  0  -0.081767  -0.08989  0  3.983482  0
C  C158  1  0.35644655  0.86590193  0.01888185  1  0.030609  0  -0.017022  -0.041519  0  3.986832  0
C  C159  1  0.37570262  0.82882973  0.07334151  1  -0.056078  0  -0.084893  -0.090138  0  3.998098  0
C  C160  1  0.66727570  0.58185443  0.10638477  1  -0.057397  0  -0.092905  -0.128798  0  3.998386  0
C  C161  1  0.61570296  0.60096768  0.06284661  1  -0.007099  0  -0.009739  0.065559  0  4.005038  0
C  C162  1  0.57103392  0.55019729  0.03400719  1  -0.079199  0  -0.093018  -0.128256  0  3.997892  0
C  C163  1  0.57815912  0.48317911  0.04756895  1  0.004904  0  -0.092934  -0.128831  0  3.999799  0
C  C164  1  0.63004611  0.46399345  0.09070373  1  -0.014469  0  -0.010114  0.065742  0  4.004185  0
C  C165  1  0.67437965  0.51483274  0.11998846  1  -0.053024  0  -0.092103  -0.127325  0  3.995404  0
C  C166  1  0.29067250  0.03889830  0.72045984  1  0.026584  0  -0.093336  -0.1369  0  4.000621  0
C  C167  1  0.35312772  0.07396277  0.71560413  1  -0.099062  0  -0.004501  0.07585  0  3.998593  0
C  C168  1  0.38047307  0.11142010  0.77195886  1  -0.064168  0  -0.092015  -0.138967  0  3.984021  0
C  C169  1  0.34597602  0.11452150  0.83134029  1  0.036641  0  -0.082905  -0.090544  0  3.987653  0
C  C170  1  0.28481654  0.07777082  0.83598237  1  0.019164  0  -0.017284  -0.041631  0  3.97963  0
C  C171  1  0.25765533  0.03963470  0.78001136  1  -0.073955  0  -0.084718  -0.089186  0  3.995606  0
C  C172  1  0.36354841  0.07408197  0.40538536  1  0.010368  0  -0.091316  -0.130488  0  3.989034  0
C  C173  1  0.33323257  0.06824101  0.46724283  1  0.011775  0  -0.003838  0.074544  0  3.985074  0
C  C174  1  0.26250362  0.06450186  0.46734455  1  -0.034558  0  -0.091654  -0.13275  0  3.979754  0
C  C175  1  0.22369613  0.06569919  0.40842277  1  -0.056029  0  -0.083688  -0.091253  0  3.998615  0
C  C176  1  0.25485649  0.06756134  0.34717054  1  -0.083105  0  -0.017537  -0.04266  0  3.988537  0
C  C177  1  0.32525804  0.07188777  0.34633302  1  -0.029113  0  -0.083924  -0.08963  0  3.994591  0
C  C178  1  0.97017671  0.94106822  0.69355667  1  -0.006889  0  -0.092466  -0.138892  0  3.980691  0
C  C179  1  0.91156238  0.97674913  0.68545732  1  0.008722  0  -0.001833  0.081167  0  3.989733  0
C  C180  1  0.89220469  0.01825196  0.73922350  1  -0.115897  0  -0.092466  -0.137913  0  3.995508  0
C  C181  1  0.92971903  0.02376797  0.79875666  1  -0.055368  0  -0.082136  -0.082068  0  3.987842  0
C  C182  1  0.98828500  0.98825533  0.80643991  1  0.060434  0  -0.021782  -0.054015  0  3.988505  0
C  C183  1  0.00828019  0.94681442  0.75324349  1  -0.116362  0  -0.082733  -0.087376  0  3.995229  0
C  C184  1  0.87881051  0.92884863  0.38091408  1  -0.033634  0  -0.09227  -0.139797  0  3.98705  0
C  C185  1  0.89962632  0.97032125  0.43707363  1  -0.037061  0  -0.003651  0.079059  0  3.996212  0
C  C186  1  0.95614893  0.01471834  0.43267669  1  0.014513  0  -0.092638  -0.13851  0  3.994224  0
C  C187  1  0.98960871  0.01899053  0.37354092  1  -0.088815  0  -0.082313  -0.084007  0  3.985241  0
C  C188  1  0.96898513  0.97702106  0.31780345  1  0.021193  0  -0.019719  -0.048084  0  3.987116  0
C  C189  1  0.91398158  0.93116512  0.32210550  1  -0.049286  0  -0.083463  -0.090993  0  3.992684  0
C  C190  1  0.65940591  0.03550593  0.52216470  1  -0.001465  0  -0.093324  -0.128218  0  3.999822  0
C  C191  1  0.69012161  0.99337353  0.56684175  1  0.015434  0  -0.010642  0.064768  0  4.004759  0
C  C192  1  0.65084318  0.96672168  0.61702464  1  -0.103066  0  -0.093103  -0.129876  0  4.00055  0
C  C193  1  0.58400135  0.98232873  0.62298616  1  -0.008172  0  -0.092213  -0.127868  0  4.000896  0
C  C194  1  0.55355981  0.02518088  0.57884666  1  -0.019079  0  -0.009487  0.066759  0  4.005954  0
C  C195  1  0.59258195  0.05105121  0.52810150  1  -0.083774  0  -0.093378  -0.129214  0  4.001935  0
C  C196  1  0.22771069  0.70065399  0.27586049  1  -0.087708  0  -0.092765  -0.13917  0  3.990096  0
C  C197  1  0.17142455  0.67881498  0.31065667  1  0.059687  0  -0.003483  0.077381  0  3.996708  0
C  C198  1  0.11605411  0.71962613  0.31344961  1  -0.133165  0  -0.091755  -0.135255  0  3.989513  0
C  C199  1  0.11522704  0.77817839  0.27880302  1  0.018178  0  -0.082587  -0.086075  0  3.983171  0
C  C200  1  0.17134291  0.79927906  0.24344305  1  -0.066858  0  -0.017746  -0.042866  0  3.985159  0
C  C201  1  0.22841516  0.76120163  0.24386456  1  0.024901  0  -0.085704  -0.095001  0  4.000283  0
C  C202  1  0.18076034  0.36597981  0.31288226  1  -0.108428  0  -0.09073  -0.129845  0  3.989249  0
C  C203  1  0.17140319  0.42794993  0.28411945  1  -0.001277  0  -0.004415  0.074104  0  3.984789  0
C  C204  1  0.16280525  0.42759807  0.21422281  1  -0.038363  0  -0.091088  -0.133596  0  3.978066  0
C  C205  1  0.16236171  0.36806496  0.17483461  1  0.025438  0  -0.084607  -0.093711  0  3.993863  0
C  C206  1  0.16738980  0.30659258  0.20480283  1  -0.000102  0  -0.016014  -0.037197  0  3.979173  0
C  C207  1  0.17688761  0.30629410  0.27433284  1  0.003194  0  -0.083553  -0.089322  0  3.992759  0
C  C208  1  0.07318260  0.63890162  0.93604073  1  -0.037937  0  -0.091743  -0.133543  0  3.982397  0
C  C209  1  0.06819369  0.63858905  0.86589679  1  0.002383  0  -0.003444  0.076604  0  3.983536  0
C  C210  1  0.06147845  0.70074648  0.83666438  1  -0.018088  0  -0.091011  -0.131943  0  3.991258  0
C  C211  1  0.06461849  0.76042762  0.87518082  1  -0.035645  0  -0.081958  -0.084607  0  3.988549  0
C  C212  1  0.07075225  0.75989953  0.94490166  1  -0.069139  0  -0.016107  -0.037454  0  3.981973  0
C  C213  1  0.07285853  0.69838593  0.97522844  1  -0.033237  0  -0.084258  -0.095769  0  3.998808  0
C  C214  1  0.02894126  0.33292562  0.82796929  1  -0.042411  0  -0.091355  -0.137735  0  3.983061  0
C  C215  1  0.07132978  0.38928613  0.84736016  1  0.029781  0  -0.002308  0.080517  0  3.99455  0
C  C216  1  0.11521338  0.38583506  0.90327876  1  -0.115195  0  -0.091601  -0.137495  0  3.996726  0
C  C217  1  0.11764219  0.32760026  0.93799209  1  -0.04443  0  -0.08311  -0.085905  0  3.986874  0
C  C218  1  0.07419568  0.27190672  0.91922656  1  -0.006957  0  -0.019437  -0.046513  0  3.985657  0
C  C219  1  0.02927662  0.27511202  0.86446174  1  -0.027886  0  -0.084121  -0.092568  0  3.990606  0
C  C220  1  0.14245658  0.48028529  0.60997986  1  -0.026293  0  -0.091945  -0.126853  0  3.996821  0
C  C221  1  0.10000045  0.52386461  0.64314692  1  0.00495  0  -0.010643  0.063825  0  4.002393  0
C  C222  1  0.07135989  0.57405147  0.60625494  1  -0.059328  0  -0.093835  -0.129982  0  4.000609  0
C  C223  1  0.08484614  0.58072267  0.53931281  1  -0.053543  0  -0.093136  -0.127964  0  4.000565  0
C  C224  1  0.12751694  0.53732616  0.50618257  1  0.0102  0  -0.009926  0.065866  0  3.999865  0
C  C225  1  0.15594638  0.48698611  0.54302930  1  -0.071871  0  -0.092582  -0.127833  0  3.995874  0
O  O226  1  0.03154408  0.16763489  0.96059978  1  -1.168617  0  -0.316942  -0.566541  0  2.244133  0
O  O227  1  0.32418289  0.06533695  0.12962666  1  -1.177339  0  -0.315038  -0.565063  0  2.228466  0
O  O228  1  0.18230971  0.23083651  0.10991942  1  -1.179056  0  -0.315828  -0.565932  0  2.223573  0
O  O229  1  0.24687115  0.12148915  0.94179428  1  -1.183307  0  -0.313705  -0.562895  0  2.219707  0
O  O230  1  0.21720004  0.01475423  0.90341120  1  -1.182778  0  -0.367616  -0.599591  0  2.36962  0
O  O231  1  0.12385804  0.19634154  0.19855369  1  -1.181266  0  -0.36293  -0.597463  0  2.340306  0
O  O232  1  0.29000974  0.15057199  0.06785399  1  -1.170421  0  -0.369072  -0.60257  0  2.376276  0
O  O233  1  0.14011731  0.20446862  0.98307707  1  -1.187488  0  -0.364336  -0.597894  0  2.356416  0
O  O234  1  0.20614580  0.03290600  0.04363829  1  -1.199735  0  -0.76546  -1.058015  0  2.240167  0
O  O235  1  0.09433037  0.11502741  0.07923900  1  -1.198482  0  -0.764027  -1.057938  0  2.234582  0
O  O236  1  0.19884836  0.10449878  0.14776515  1  -1.241657  0  -0.660708  -0.991614  0  2.424138  0
O  O237  1  0.12069475  0.07336910  0.96463080  1  -1.247789  0  -0.661933  -0.991624  0  2.429858  0
O  O238  1  0.21609093  0.89778755  0.19228986  1  -1.175039  0  -0.319311  -0.569239  0  2.238361  0
O  O239  1  0.92511214  0.99678305  0.01639648  1  -1.17989  0  -0.317958  -0.566334  0  2.227346  0
O  O240  1  0.16048471  0.08670300  0.27383308  1  -1.175975  0  -0.317582  -0.5688  0  2.23477  0
O  O241  1  0.25639357  0.91586945  0.97844088  1  -1.183799  0  -0.31818  -0.564889  0  2.234832  0
O  O242  1  0.08230933  0.96882204  0.87986071  1  -1.175397  0  -0.316515  -0.568512  0  2.245436  0
O  O243  1  0.99424479  0.15274900  0.17196888  1  -1.173194  0  -0.319306  -0.567312  0  2.235909  0
O  O244  1  0.00562760  0.93813312  0.21076348  1  -1.171605  0  -0.320146  -0.56952  0  2.25122  0
O  O245  1  0.05862361  0.83475390  0.04087925  1  -1.176042  0  -0.319608  -0.56612  0  2.234421  0
O  O246  1  0.03226487  0.04526165  0.25002197  1  -1.178816  0  -0.360328  -0.594852  0  2.35431  0
O  O247  1  0.11874392  0.86816983  0.95291211  1  -1.169541  0  -0.362021  -0.595641  0  2.349432  0
O  O248  1  0.24699557  0.02637426  0.23710987  1  -1.173186  0  -0.362596  -0.596095  0  2.349329  0
O  O249  1  0.95726298  0.13425361  0.06386198  1  -1.176786  0  -0.363171  -0.598615  0  2.34084  0
O  O250  1  0.99981183  0.03490646  0.91519142  1  -1.185496  0  -0.365078  -0.59857  0  2.379202  0
O  O251  1  0.29471211  0.93553746  0.08598279  1  -1.181612  0  -0.363367  -0.596048  0  2.346184  0
O  O252  1  0.10625082  0.86281417  0.17489094  1  -1.177356  0  -0.361109  -0.597293  0  2.345169  0
O  O253  1  0.95856189  0.91178820  0.07884982  1  -1.179406  0  -0.367736  -0.600192  0  2.384117  0
O  O254  1  0.06797786  0.97822344  0.02277893  1  -1.198981  0  -0.765856  -1.056664  0  2.237317  0
O  O255  1  0.12632789  0.00074332  0.15828920  1  -1.198322  0  -0.764807  -1.058251  0  2.23495  0
O  O256  1  0.01183734  0.03042081  0.11924052  1  -1.25536  0  -0.660768  -0.991269  0  2.423925  0
O  O257  1  0.16340714  0.91888427  0.07162556  1  -1.214052  0  -0.66094  -0.99299  0  2.424029  0
