# generated using pymatgen
data_Cu3H8C16(N3O)4
_symmetry_space_group_name_H-M   'P 1'
_cell_length_a   11.16836250
_cell_length_b   11.20147348
_cell_length_c   13.49049517
_cell_angle_alpha   114.51501626
_cell_angle_beta   114.56365499
_cell_angle_gamma   89.95944826
_symmetry_Int_Tables_number   1
_chemical_formula_structural   Cu3H8C16(N3O)4
_chemical_formula_sum   'Cu6 H16 C32 N24 O8'
_cell_volume   1366.15891455
_cell_formula_units_Z   2
loop_
 _symmetry_equiv_pos_site_id
 _symmetry_equiv_pos_as_xyz
  1  'x, y, z'
loop_
 _atom_site_type_symbol
 _atom_site_label
 _atom_site_symmetry_multiplicity
 _atom_site_fract_x
 _atom_site_fract_y
 _atom_site_fract_z
 _atom_site_occupancy
 _atom_site_pbe_bader_charge
 _atom_site_pbe_bader_spin_density
 _atom_site_pbe_cm5_charge
 _atom_site_pbe_ddec_charge
 _atom_site_pbe_ddec_spin_density
 _atom_site_pbe_ddec_sum_bond_order
 _atom_site_pbe_magmom
Cu  Cu0  1  0.89065528  0.88994816  0.78060280  1  0.891348  0.057184  0.677935  0.617863  0.070265  2.818939  0.057
Cu  Cu1  1  0.11003572  0.10963239  0.21965391  1  0.890482  0.059226  0.679962  0.619192  0.072789  2.823265  0.059
Cu  Cu2  1  0.36004260  0.85970501  0.71981577  1  0.890354  0.058586  0.679347  0.618403  0.071999  2.822578  0.059
Cu  Cu3  1  0.14025806  0.63980494  0.28047690  1  0.891294  0.05763  0.678328  0.617452  0.070799  2.820925  0.058
Cu  Cu4  1  0.75010570  0.25017240  0.50022134  1  1.071761  0.496281  0.692547  0.865839  0.623914  2.030282  0.499
Cu  Cu5  1  0.49972354  0.49993109  0.99966277  1  1.071693  0.496247  0.692578  0.865925  0.623832  2.031654  0.499
H  H6  1  0.91105805  0.22300248  0.38005853  1  0.529366  0.000201  0.306139  0.325792  5.2e-05  0.970208  0.0
H  H7  1  0.97864743  0.32373641  0.33858917  1  0.473912  -0.00012  0.309158  0.314103  -0.000141  0.955023  0.0
H  H8  1  0.46876504  0.15714997  0.37993046  1  0.501767  0.00019  0.306107  0.325235  4.3e-05  0.970905  0.0
H  H9  1  0.35962412  0.01490149  0.33830886  1  0.499032  -0.000115  0.30885  0.312742  -0.000145  0.956777  0.0
H  H10  1  0.84271017  0.08923698  0.61995216  1  0.528433  0.000198  0.306005  0.325832  5.1e-05  0.970864  0.0
H  H11  1  0.98521651  0.02138760  0.66128703  1  0.471715  -0.000125  0.309121  0.31406  -0.000146  0.954834  0.0
H  H12  1  0.77761405  0.53085715  0.62015239  1  0.525544  0.000204  0.305944  0.325477  5.2e-05  0.971064  0.0
H  H13  1  0.67646322  0.63985556  0.66142353  1  0.492192  -0.000106  0.308992  0.313823  -0.000136  0.956004  0.0
H  H14  1  0.33904488  0.59270938  0.11986416  1  0.503488  0.00019  0.306008  0.325852  4.4e-05  0.970764  0.0
H  H15  1  0.27175565  0.73514286  0.16169641  1  0.473835  -0.000125  0.309053  0.313815  -0.000146  0.955788  0.0
H  H16  1  0.78089266  0.52725077  0.11992236  1  0.527124  0.000196  0.305985  0.325572  4.5e-05  0.970776  0.0
H  H17  1  0.89010461  0.42658990  0.16181480  1  0.490187  -0.000109  0.308986  0.313712  -0.000138  0.955964  0.0
H  H18  1  0.40743414  0.21942795  0.88000034  1  0.50354  0.000196  0.305647  0.324909  4.9e-05  0.972044  0.0
H  H19  1  0.26499576  0.11028042  0.83853551  1  0.501949  -0.000113  0.309235  0.313727  -0.000142  0.954789  0.0
H  H20  1  0.47199851  0.66061236  0.87966255  1  0.526166  0.000203  0.306183  0.3261  5.3e-05  0.970298  0.0
H  H21  1  0.57291828  0.72815291  0.83817658  1  0.476994  -0.000119  0.308838  0.313652  -0.00014  0.956166  0.0
C  C22  1  0.97267304  0.55556116  0.50053868  1  0.282458  0.016988  -0.054532  -0.29706  0.011337  4.185827  0.012
C  C23  1  0.02996666  0.57931464  0.43456944  1  0.784929  -0.00176  0.18559  0.319376  -0.002264  4.100401  -0.002
C  C24  1  0.95930295  0.66422158  0.59289743  1  0.839808  -0.00155  0.191419  0.339147  -0.001912  4.086183  -0.002
C  C25  1  0.92295804  0.42203226  0.47483383  1  1.312922  -0.001659  0.232936  0.574392  -0.001788  4.171152  -0.002
C  C26  1  0.52794765  0.94498844  0.50047686  1  0.267411  0.017157  -0.055016  -0.296869  0.011437  4.186795  0.012
C  C27  1  0.40465232  0.85503697  0.43436522  1  0.789397  -0.0018  0.185461  0.318853  -0.002343  4.10273  -0.002
C  C28  1  0.63385291  0.92864932  0.59296513  1  0.837753  -0.001611  0.191495  0.33862  -0.001946  4.08716  -0.002
C  C29  1  0.55190475  0.05285376  0.47481717  1  1.34231  -0.001754  0.232521  0.5734  -0.001828  4.168965  -0.003
C  C30  1  0.05543512  0.02727754  0.49944654  1  0.302238  0.017331  -0.05458  -0.296998  0.011584  4.185481  0.012
C  C31  1  0.14522430  0.96993353  0.56540516  1  0.799369  -0.001811  0.185042  0.318257  -0.00237  4.101206  -0.002
C  C32  1  0.07189461  0.04068716  0.40718103  1  0.808828  -0.001666  0.191607  0.339244  -0.002026  4.087469  -0.002
C  C33  1  0.94738580  0.07722608  0.52522259  1  1.325919  -0.001632  0.232749  0.574083  -0.001779  4.169646  -0.002
C  C34  1  0.44397784  0.47226376  0.49951085  1  0.227549  0.016918  -0.054517  -0.296872  0.011267  4.186476  0.011
C  C35  1  0.42033534  0.59546374  0.56546534  1  0.829259  -0.001739  0.185545  0.318034  -0.002261  4.101915  -0.002
C  C36  1  0.33514688  0.36652308  0.40714379  1  0.833951  -0.001603  0.190816  0.339021  -0.001927  4.089463  -0.002
C  C37  1  0.57792620  0.44812121  0.52538148  1  1.346701  -0.001784  0.23243  0.573498  -0.001887  4.171145  -0.003
C  C38  1  0.27722768  0.80505938  0.99945502  1  0.281895  0.017722  -0.054316  -0.296482  0.011806  4.185663  0.012
C  C39  1  0.22012548  0.89491308  0.06553841  1  0.804578  -0.001872  0.185776  0.319002  -0.002437  4.102467  -0.002
C  C40  1  0.29074643  0.82152333  0.90721746  1  0.810912  -0.001683  0.191363  0.338625  -0.002056  4.087248  -0.002
C  C41  1  0.32685616  0.69705216  0.02503898  1  1.342948  -0.001744  0.233294  0.575125  -0.001838  4.170111  -0.003
C  C42  1  0.72206663  0.19469945  0.99947212  1  0.220898  0.017223  -0.054989  -0.298438  0.011469  4.1867  0.012
C  C43  1  0.84552402  0.17091709  0.06560635  1  0.82442  -0.001774  0.186061  0.319628  -0.002313  4.100537  -0.002
C  C44  1  0.61627713  0.08589322  0.90713177  1  0.844785  -0.001644  0.191261  0.339885  -0.001961  4.086341  -0.002
C  C45  1  0.69799485  0.32817864  0.02501843  1  1.343136  -0.001821  0.232705  0.575266  -0.00195  4.17055  -0.003
C  C46  1  0.19468300  0.27786698  0.00051469  1  0.287125  0.017039  -0.055582  -0.298537  0.01139  4.186982  0.012
C  C47  1  0.10504651  0.15461665  0.93465400  1  0.817118  -0.001763  0.185872  0.319355  -0.002329  4.100866  -0.002
C  C48  1  0.17826733  0.38353831  0.09281594  1  0.836303  -0.001601  0.191931  0.340076  -0.001938  4.08618  -0.002
C  C49  1  0.30270231  0.30197926  0.97472148  1  1.332603  -0.001711  0.232202  0.57387  -0.001825  4.169315  -0.003
C  C50  1  0.80562564  0.72278269  0.00047074  1  0.28197  0.016758  -0.054461  -0.29609  0.011189  4.186072  0.011
C  C51  1  0.82944183  0.78001194  0.93456706  1  0.781709  -0.001711  0.185196  0.318286  -0.002215  4.101647  -0.002
C  C52  1  0.91456612  0.70937391  0.09290567  1  0.847062  -0.001515  0.190437  0.33837  -0.00187  4.087016  -0.002
C  C53  1  0.67174310  0.67278650  0.97458049  1  1.314197  -0.001641  0.232787  0.573742  -0.001766  4.17213  -0.002
N  N54  1  0.92783733  0.31443117  0.38311378  1  -1.310084  -0.000556  -0.572991  -0.6449  -0.001131  3.337192  0.0
N  N55  1  0.07538033  0.59777480  0.37654620  1  -1.23838  0.008771  -0.391567  -0.447187  0.005543  3.389867  0.007
N  N56  1  0.94601206  0.75266054  0.67073713  1  -1.252437  0.009091  -0.390278  -0.45201  0.005859  3.352951  0.007
N  N57  1  0.45510060  0.06875311  0.38296487  1  -1.305323  -0.000507  -0.573033  -0.64318  -0.001079  3.338485  0.0
N  N58  1  0.30124989  0.77826224  0.37642218  1  -1.24188  0.008919  -0.390802  -0.446013  0.005644  3.388833  0.007
N  N59  1  0.72500432  0.91773863  0.67085204  1  -1.257811  0.008912  -0.389786  -0.451013  0.005727  3.35139  0.007
N  N60  1  0.93131996  0.07223799  0.61684479  1  -1.301621  -0.000442  -0.572963  -0.645093  -0.001027  3.337787  0.0
N  N61  1  0.22157992  0.92439843  0.62350338  1  -1.263097  0.008904  -0.391  -0.44609  0.005635  3.389069  0.007
N  N62  1  0.08242134  0.05413782  0.32937227  1  -1.237887  0.009003  -0.390081  -0.451702  0.005786  3.35183  0.007
N  N63  1  0.68588212  0.54465026  0.61704970  1  -1.327508  -0.000641  -0.572733  -0.644158  -0.001201  3.338485  0.0
N  N64  1  0.40210971  0.69890050  0.62360056  1  -1.267067  0.008749  -0.39086  -0.445396  0.005544  3.389486  0.007
N  N65  1  0.24689997  0.27504839  0.32929718  1  -1.229621  0.00934  -0.390108  -0.451888  0.006024  3.356629  0.008
N  N66  1  0.32222644  0.68113010  0.11685187  1  -1.279283  -0.000477  -0.573033  -0.645087  -0.001058  3.338716  0.0
N  N67  1  0.17482770  0.97148604  0.12363980  1  -1.262973  0.009111  -0.391518  -0.446683  0.005764  3.392151  0.007
N  N68  1  0.30431693  0.83209839  0.82947418  1  -1.238403  0.009124  -0.389859  -0.451354  0.005858  3.352039  0.007
N  N69  1  0.79463587  0.43582768  0.11694799  1  -1.327291  -0.000679  -0.572787  -0.644856  -0.001236  3.338577  0.0
N  N70  1  0.94902552  0.15211097  0.12358727  1  -1.265673  0.008955  -0.391142  -0.446103  0.005674  3.389607  0.007
N  N71  1  0.52516543  0.99716582  0.82942115  1  -1.224202  0.009436  -0.390295  -0.452092  0.00608  3.355382  0.008
N  N72  1  0.31884429  0.20550012  0.88309184  1  -1.308497  -0.000509  -0.57273  -0.6437  -0.001078  3.338799  0.0
N  N73  1  0.02878552  0.05106013  0.87667244  1  -1.27809  0.008851  -0.391087  -0.446411  0.005604  3.386967  0.007
N  N74  1  0.16769281  0.47473005  0.17062491  1  -1.259738  0.008861  -0.39041  -0.452114  0.005696  3.352471  0.007
N  N75  1  0.56369878  0.67747645  0.88274532  1  -1.309861  -0.000543  -0.573474  -0.645251  -0.001117  3.338913  0.0
N  N76  1  0.84815585  0.82541631  0.87669106  1  -1.236654  0.008642  -0.390874  -0.446401  0.005463  3.388784  0.007
N  N77  1  0.00303522  0.69583704  0.17079275  1  -1.256678  0.009045  -0.389402  -0.451145  0.005835  3.351596  0.007
O  O78  1  0.87251082  0.40876063  0.54080514  1  -1.1364  0.067291  -0.328502  -0.557694  0.042755  2.366497  0.061
O  O79  1  0.66849840  0.13214528  0.54092078  1  -1.147112  0.067427  -0.328175  -0.557251  0.042764  2.364319  0.061
O  O80  1  0.86822054  0.12800203  0.45943527  1  -1.145675  0.067236  -0.328333  -0.557042  0.042635  2.365883  0.061
O  O81  1  0.59110728  0.33167239  0.45960145  1  -1.1456  0.067223  -0.328235  -0.556886  0.042634  2.367011  0.061
O  O82  1  0.37705486  0.61769329  0.95886896  1  -1.147988  0.067302  -0.328448  -0.557635  0.042672  2.366627  0.061
O  O83  1  0.58138479  0.34138826  0.95873963  1  -1.146776  0.067291  -0.328451  -0.557963  0.042673  2.366724  0.061
O  O84  1  0.38184350  0.41840601  0.04053962  1  -1.147169  0.067441  -0.328326  -0.55744  0.042767  2.365128  0.061
O  O85  1  0.65863306  0.62226796  0.04051090  1  -1.137862  0.067345  -0.328167  -0.55715  0.042792  2.365984  0.061
