# generated using pymatgen
data_CdH14C13N5ClO2
_symmetry_space_group_name_H-M   'P 1'
_cell_length_a   7.94033167
_cell_length_b   9.12670697
_cell_length_c   12.94202609
_cell_angle_alpha   69.34053087
_cell_angle_beta   81.41013425
_cell_angle_gamma   64.90178001
_symmetry_Int_Tables_number   1
_chemical_formula_structural   CdH14C13N5ClO2
_chemical_formula_sum   'Cd2 H28 C26 N10 Cl2 O4'
_cell_volume   794.72438309
_cell_formula_units_Z   2
loop_
 _symmetry_equiv_pos_site_id
 _symmetry_equiv_pos_as_xyz
  1  'x, y, z'
loop_
 _atom_site_type_symbol
 _atom_site_label
 _atom_site_symmetry_multiplicity
 _atom_site_fract_x
 _atom_site_fract_y
 _atom_site_fract_z
 _atom_site_occupancy
 _atom_site_hle17_bader_spin_density
 _atom_site_hle17_ddec_charge
 _atom_site_hle17_ddec_spin_density
 _atom_site_hle17_ddec_sum_bond_order
 _atom_site_hle17_magmom
 _atom_site_hse06_10hf_bader_spin_density
 _atom_site_hse06_10hf_ddec_charge
 _atom_site_hse06_10hf_ddec_spin_density
 _atom_site_hse06_10hf_ddec_sum_bond_order
 _atom_site_hse06_10hf_magmom
 _atom_site_hse06_bader_spin_density
 _atom_site_hse06_ddec_charge
 _atom_site_hse06_ddec_spin_density
 _atom_site_hse06_ddec_sum_bond_order
 _atom_site_hse06_magmom
 _atom_site_pbe_bader_spin_density
 _atom_site_pbe_cm5_charge
 _atom_site_pbe_ddec_charge
 _atom_site_pbe_ddec_spin_density
 _atom_site_pbe_ddec_sum_bond_order
 _atom_site_pbe_magmom
Cd  Cd0  1  0.37924033  0.60740280  0.05152802  1  0  1.050402  0  1.738438  0  0  0.847549  0  2.189625  0  0  0.902173  0  2.143208  0  0  0.746679  0.808751  0  2.221265  0
Cd  Cd1  1  0.87919765  0.65893586  0.94833993  1  0  1.050134  0  1.737676  0  0  0.846951  0  2.188781  0  0  0.901613  0  2.142385  0  0  0.746597  0.808116  0  2.220415  0
H  H2  1  0.38224656  0.77392302  0.23960770  1  0  0.311791  0  0.893306  0  0  0.288359  0  0.96414  0  0  0.29906  0  0.954264  0  0  0.307072  0.280664  0  0.971329  0
H  H3  1  0.88244733  0.01405536  0.76016369  1  0  0.312782  0  0.893016  0  0  0.289727  0  0.962971  0  0  0.300425  0  0.953076  0  0  0.307676  0.28203  0  0.970195  0
H  H4  1  0.45979686  0.65925861  0.46862592  1  0  0.091331  0  0.94298  0  0  0.105386  0  0.996995  0  0  0.108393  0  0.995366  0  0  0.101918  0.103186  0  0.998239  0
H  H5  1  0.95944511  0.12913257  0.53152354  1  0  0.089855  0  0.945369  0  0  0.104077  0  0.999281  0  0  0.107038  0  0.997688  0  0  0.101685  0.101923  0  1.000474  0
H  H6  1  0.51909935  0.66876969  0.64885824  1  0  0.105791  0  0.95054  0  0  0.112372  0  1.015614  0  0  0.115466  0  1.014527  0  0  0.104873  0.110132  0  1.016498  0
H  H7  1  0.01886414  0.31871993  0.35123169  1  0  0.106836  0  0.949092  0  0  0.113594  0  1.013969  0  0  0.116698  0  1.012856  0  0  0.10534  0.111367  0  1.014866  0
H  H8  1  0.99348089  0.78421022  0.51039092  1  0  0.088815  0  0.942545  0  0  0.101256  0  0.99864  0  0  0.104302  0  0.99727  0  0  0.100236  0.099051  0  0.999743  0
H  H9  1  0.49442253  0.29419240  0.48946814  1  0  0.09006  0  0.941247  0  0  0.10196  0  0.997851  0  0  0.105046  0  0.996427  0  0  0.100751  0.099728  0  0.999005  0
H  H10  1  0.93933454  0.76992885  0.33022670  1  0  0.109251  0  0.964834  0  0  0.115158  0  1.032367  0  0  0.118572  0  1.030008  0  0  0.103947  0.11266  0  1.034113  0
H  H11  1  0.44005013  0.10003143  0.66975876  1  0  0.109518  0  0.964516  0  0  0.115654  0  1.031882  0  0  0.119165  0  1.029431  0  0  0.103818  0.113097  0  1.033685  0
H  H12  1  0.85519338  0.83085300  0.68272702  1  0  0.06073  0  0.956518  0  0  0.071674  0  1.028854  0  0  0.072291  0  1.028331  0  0  0.094118  0.071212  0  1.029234  0
H  H13  1  0.35590231  0.51355260  0.31718450  1  0  0.060646  0  0.954613  0  0  0.072479  0  1.025999  0  0  0.073131  0  1.025448  0  0  0.094894  0.072004  0  1.026384  0
H  H14  1  0.65877016  0.78778688  0.74045763  1  0  0.084946  0  0.988417  0  0  0.090263  0  1.069457  0  0  0.092079  0  1.067706  0  0  0.098847  0.088868  0  1.070802  0
H  H15  1  0.15926523  0.52850552  0.25943288  1  0  0.085843  0  0.986703  0  0  0.090582  0  1.068197  0  0  0.092424  0  1.066432  0  0  0.098835  0.089173  0  1.069566  0
H  H16  1  0.18439836  0.58181292  0.74108227  1  0  0.066315  0  0.924365  0  0  0.083808  0  0.9845  0  0  0.084314  0  0.984547  0  0  0.098627  0.083391  0  0.984538  0
H  H17  1  0.68490455  0.32249734  0.25890846  1  0  0.066171  0  0.92351  0  0  0.083563  0  0.983809  0  0  0.084062  0  0.983867  0  0  0.098558  0.083127  0  0.983883  0
H  H18  1  0.11379220  0.48616403  0.66575311  1  0  0.041525  0  0.944864  0  0  0.05729  0  1.013268  0  0  0.057276  0  1.014429  0  0  0.087395  0.057264  0  1.012508  0
H  H19  1  0.61398693  0.15174956  0.33431699  1  0  0.042331  0  0.945431  0  0  0.058153  0  1.013532  0  0  0.058145  0  1.014687  0  0  0.087314  0.058133  0  1.012759  0
H  H20  1  0.25400353  0.33558710  0.90216715  1  0  0.091443  0  0.948174  0  0  0.108695  0  1.006481  0  0  0.109611  0  1.006996  0  0  0.094043  0.107943  0  1.00622  0
H  H21  1  0.75402005  0.23728943  0.09791929  1  0  0.091768  0  0.948936  0  0  0.108758  0  1.007208  0  0  0.109661  0  1.007839  0  0  0.094125  0.107981  0  1.006955  0
H  H22  1  0.29834828  0.23005564  0.80502714  1  0  0.082288  0  0.963572  0  0  0.098225  0  1.025811  0  0  0.09892  0  1.02646  0  0  0.082653  0.09765  0  1.025483  0
H  H23  1  0.79819873  0.03465245  0.19515676  1  0  0.082138  0  0.962719  0  0  0.098062  0  1.024945  0  0  0.0988  0  1.025522  0  0  0.08267  0.097461  0  1.02465  0
H  H24  1  0.02918975  0.16496088  0.87057916  1  0  0.077531  0  0.951463  0  0  0.091409  0  1.014972  0  0  0.092033  0  1.016211  0  0  0.086019  0.090936  0  1.014141  0
H  H25  1  0.52863721  0.03550775  0.12971993  1  0  0.077479  0  0.952526  0  0  0.09129  0  1.016056  0  0  0.091914  0  1.017328  0  0  0.085912  0.090813  0  1.015216  0
H  H26  1  0.00160091  0.26323285  0.97064900  1  0  0.096365  0  0.960076  0  0  0.110574  0  1.024539  0  0  0.112309  0  1.023934  0  0  0.093969  0.109214  0  1.025125  0
H  H27  1  0.50132486  0.23377842  0.02951684  1  0  0.096905  0  0.96047  0  0  0.111123  0  1.024878  0  0  0.112852  0  1.02429  0  0  0.093899  0.109762  0  1.025448  0
H  H28  1  0.82509470  0.41670866  0.74261430  1  0  0.053701  0  0.930331  0  0  0.062955  0  0.992165  0  0  0.064526  0  0.991453  0  0  0.099027  0.061798  0  0.992811  0
H  H29  1  0.32488780  0.15965533  0.25756976  1  0  0.053267  0  0.928717  0  0  0.062659  0  0.991135  0  0  0.064325  0  0.990317  0  0  0.098827  0.061484  0  0.991806  0
C  C30  1  0.67925120  0.70001949  0.28195001  1  0  0.299247  0  3.731726  0  0  0.265049  0  4.008055  0  0  0.278474  0  4.021354  0  0  0.246786  0.256124  0  3.999116  0
C  C31  1  0.17947576  0.98222992  0.71798836  1  0  0.301174  0  3.73208  0  0  0.26607  0  4.008723  0  0  0.279596  0  4.022009  0  0  0.247995  0.257082  0  3.999801  0
C  C32  1  0.69657012  0.71403078  0.38802037  1  0  -0.015369  0  3.829931  0  0  0.004036  0  4.067135  0  0  0.000101  0  4.091146  0  0  -0.01017  0.006548  0  4.050858  0
C  C33  1  0.19681969  0.10248372  0.61199305  1  0  -0.014663  0  3.827467  0  0  0.00484  0  4.065183  0  0  0.000862  0  4.089278  0  0  -0.009389  0.007389  0  4.04884  0
C  C34  1  0.57684038  0.68705918  0.47738465  1  0  -0.095352  0  3.756994  0  0  -0.118984  0  4.003924  0  0  -0.119906  0  4.024608  0  0  -0.088612  -0.118121  0  3.989822  0
C  C35  1  0.07684810  0.16527292  0.52267009  1  0  -0.092675  0  3.759431  0  0  -0.11647  0  4.006266  0  0  -0.117298  0  4.026948  0  0  -0.088421  -0.115683  0  3.992164  0
C  C36  1  0.61033422  0.69159095  0.57870862  1  0  -0.10312  0  3.717566  0  0  -0.121418  0  3.967635  0  0  -0.125069  0  3.989281  0  0  -0.084806  -0.118992  0  3.953011  0
C  C37  1  0.11038692  0.27102074  0.42133301  1  0  -0.105884  0  3.717051  0  0  -0.124119  0  3.967306  0  0  -0.12778  0  3.988877  0  0  -0.085382  -0.121721  0  3.952773  0
C  C38  1  0.76157152  0.72478688  0.59219105  1  0  0.092378  0  3.716539  0  0  0.11016  0  3.9546  0  0  0.11079  0  3.9787  0  0  -0.005487  0.10976  0  3.938255  0
C  C39  1  0.26200934  0.31719462  0.40775096  1  0  0.095007  0  3.715812  0  0  0.112491  0  3.954349  0  0  0.113165  0  3.97845  0  0  -0.005298  0.112057  0  3.938024  0
C  C40  1  0.87817612  0.75407368  0.50165337  1  0  -0.115838  0  3.752129  0  0  -0.132667  0  3.99718  0  0  -0.136334  0  4.018453  0  0  -0.087484  -0.130251  0  3.982824  0
C  C41  1  0.37886129  0.25563899  0.49828153  1  0  -0.118818  0  3.750322  0  0  -0.134907  0  3.995764  0  0  -0.138603  0  4.016953  0  0  -0.088943  -0.132485  0  3.981483  0
C  C42  1  0.84822255  0.74766589  0.40066567  1  0  -0.069421  0  3.716232  0  0  -0.092315  0  3.96286  0  0  -0.093011  0  3.983503  0  0  -0.0772  -0.091636  0  3.948873  0
C  C43  1  0.34876647  0.14838256  0.59932832  1  0  -0.070298  0  3.712706  0  0  -0.093562  0  3.959433  0  0  -0.094324  0  3.980052  0  0  -0.077603  -0.092841  0  3.945469  0
C  C44  1  0.79290325  0.73776597  0.70006280  1  0  -0.082268  0  3.702784  0  0  -0.143478  0  3.951489  0  0  -0.139999  0  3.963492  0  0  -0.082875  -0.145676  0  3.943097  0
C  C45  1  0.29339903  0.43797462  0.29985660  1  0  -0.084708  0  3.699824  0  0  -0.14616  0  3.950626  0  0  -0.142798  0  3.962771  0  0  -0.083659  -0.148269  0  3.942104  0
C  C46  1  0.11078129  0.50058679  0.74743479  1  0  0.002425  0  3.627137  0  0  -0.0571  0  3.894017  0  0  -0.053054  0  3.905932  0  0  -0.075902  -0.059775  0  3.885645  0
C  C47  1  0.61103794  0.24780342  0.25260770  1  0  0.000244  0  3.627994  0  0  -0.058676  0  3.894335  0  0  -0.054575  0  3.9062  0  0  -0.076312  -0.06137  0  3.885964  0
C  C48  1  0.18929153  0.32629124  0.83704820  1  0  -0.126729  0  3.614358  0  0  -0.163029  0  3.866709  0  0  -0.16408  0  3.878842  0  0  -0.168356  -0.162113  0  3.858267  0
C  C49  1  0.68925341  0.16300995  0.16308888  1  0  -0.124874  0  3.614238  0  0  -0.160778  0  3.865508  0  0  -0.161924  0  3.87776  0  0  -0.167069  -0.1598  0  3.856993  0
C  C50  1  0.01851761  0.28192781  0.88183749  1  0  -0.139206  0  3.592235  0  0  -0.181869  0  3.844359  0  0  -0.182873  0  3.856063  0  0  -0.164389  -0.18096  0  3.83621  0
C  C51  1  0.51825979  0.16368688  0.11834771  1  0  -0.140625  0  3.593458  0  0  -0.183186  0  3.845923  0  0  -0.184205  0  3.85771  0  0  -0.16476  -0.182251  0  3.837724  0
C  C52  1  0.85140092  0.43759690  0.81654051  1  0  -0.02215  0  3.60002  0  0  -0.034927  0  3.833041  0  0  -0.036229  0  3.845932  0  0  -0.006193  -0.034066  0  3.824064  0
C  C53  1  0.35132078  0.25431798  0.18356770  1  0  -0.021335  0  3.598952  0  0  -0.035201  0  3.834223  0  0  -0.036552  0  3.847141  0  0  -0.005934  -0.034343  0  3.825232  0
C  C54  1  0.67051806  0.47391063  0.88330401  1  0  0.641809  0  3.865046  0  0  0.590667  0  4.167746  0  0  0.623674  0  4.161792  0  0  0.201102  0.568149  0  4.170969  0
C  C55  1  0.17039769  0.35757060  0.11679825  1  0  0.64  0  3.866383  0  0  0.589357  0  4.1687  0  0  0.622348  0  4.1628  0  0  0.200857  0.566834  0  4.171906  0
N  N56  1  0.82581193  0.65552908  0.21569046  1  0  -0.23808  0  2.891111  0  0  -0.224592  0  3.174784  0  0  -0.234064  0  3.187452  0  0  -0.180676  -0.218528  0  3.166555  0
N  N57  1  0.32606380  0.87101701  0.78416626  1  0  -0.238753  0  2.893499  0  0  -0.225004  0  3.177621  0  0  -0.234478  0  3.190294  0  0  -0.181391  -0.218925  0  3.169372  0
N  N58  1  0.75910914  0.65437009  0.12727178  1  0  -0.03742  0  3.162269  0  0  0.006079  0  3.456251  0  0  0.002431  0  3.468544  0  0  -0.073684  0.008811  0  3.447967  0
N  N59  1  0.25937295  0.78131305  0.87248668  1  0  -0.038548  0  3.163156  0  0  0.004474  0  3.457917  0  0  0.000802  0  3.470211  0  0  -0.074706  0.007217  0  3.449636  0
N  N60  1  0.58143524  0.69374008  0.13488103  1  0  -0.064461  0  3.041213  0  0  -0.043117  0  3.322164  0  0  -0.045904  0  3.335896  0  0  -0.083295  -0.041124  0  3.312951  0
N  N61  1  0.08159981  0.82866369  0.86489544  1  0  -0.06049  0  3.039154  0  0  -0.039156  0  3.319529  0  0  -0.041858  0  3.333324  0  0  -0.081432  -0.037198  0  3.310288  0
N  N62  1  0.52765147  0.72321215  0.23151569  1  0  -0.231004  0  3.398992  0  0  -0.175351  0  3.634641  0  0  -0.189586  0  3.647427  0  0  -0.242684  -0.165982  0  3.626309  0
N  N63  1  0.02780138  0.95514043  0.76836481  1  0  -0.235594  0  3.403133  0  0  -0.179249  0  3.637868  0  0  -0.193645  0  3.650801  0  0  -0.24398  -0.169807  0  3.629479  0
N  N64  1  0.91534854  0.57886851  0.78244435  1  0  -0.236491  0  3.235599  0  0  -0.132154  0  3.463271  0  0  -0.152658  0  3.487044  0  0  -0.329361  -0.117779  0  3.446334  0
N  N65  1  0.41562376  0.36137864  0.21754430  1  0  -0.235313  0  3.235452  0  0  -0.131797  0  3.464979  0  0  -0.152307  0  3.488774  0  0  -0.329502  -0.117415  0  3.448025  0
Cl  Cl66  1  0.15510010  0.83858414  0.13847763  1  0  -0.607437  0  0.823741  0  0  -0.560733  0  1.060448  0  0  -0.578443  0  1.040913  0  0  -0.328475  -0.547718  0  1.073751  0
Cl  Cl67  1  0.65509685  0.97698223  0.86121309  1  0  -0.607829  0  0.824203  0  0  -0.561356  0  1.061127  0  0  -0.579075  0  1.041545  0  0  -0.328815  -0.548322  0  1.074475  0
O  O68  1  0.54972830  0.43272481  0.86626614  1  0  -0.581078  0  1.900999  0  0  -0.543977  0  2.125214  0  0  -0.56555  0  2.117224  0  0  -0.317077  -0.52871  0  2.130112  0
O  O69  1  0.04946912  0.29955998  0.13376035  1  0  -0.579918  0  1.901698  0  0  -0.542685  0  2.125343  0  0  -0.564314  0  2.117504  0  0  -0.316481  -0.52738  0  2.130133  0
O  O70  1  0.65896291  0.54306375  0.95845092  1  0  -0.682206  0  2.112735  0  0  -0.594536  0  2.390608  0  0  -0.629306  0  2.379585  0  0  -0.340512  -0.56998  0  2.397204  0
O  O71  1  0.15894183  0.50190308  0.04165182  1  0  -0.682293  0  2.113715  0  0  -0.594272  0  2.391042  0  0  -0.629067  0  2.380031  0  0  -0.340747  -0.569669  0  2.397618  0
