# generated using pymatgen
data_ZnH19C19SN6O7
_symmetry_space_group_name_H-M   'P 1'
_cell_length_a   10.70269233
_cell_length_b   17.00159830
_cell_length_c   17.49901394
_cell_angle_alpha   88.77641256
_cell_angle_beta   93.79883118
_cell_angle_gamma   89.78691878
_symmetry_Int_Tables_number   1
_chemical_formula_structural   ZnH19C19SN6O7
_chemical_formula_sum   'Zn2 H38 C38 S2 N12 O14'
_cell_volume   3176.40817120
_cell_formula_units_Z   2
loop_
 _symmetry_equiv_pos_site_id
 _symmetry_equiv_pos_as_xyz
  1  'x, y, z'
loop_
 _atom_site_type_symbol
 _atom_site_label
 _atom_site_symmetry_multiplicity
 _atom_site_fract_x
 _atom_site_fract_y
 _atom_site_fract_z
 _atom_site_occupancy
 _atom_site_pbe_bader_charge
 _atom_site_pbe_bader_spin_density
 _atom_site_pbe_cm5_charge
 _atom_site_pbe_ddec_charge
 _atom_site_pbe_ddec_spin_density
 _atom_site_pbe_ddec_sum_bond_order
 _atom_site_pbe_magmom
Zn  Zn0  1  0.54242206  0.41015780  0.50321838  1  1.313386  0  0.682991  0.87732  0  2.269103  0
Zn  Zn1  1  0.53692547  0.59540481  0.51374163  1  1.324147  0  0.698071  0.902957  0  2.196823  0
H  H2  1  0.11803229  0.39400442  0.48763693  1  0.012536  0  0.088854  0.084899  0  0.989662  0
H  H3  1  0.14143345  0.64593949  0.49428190  1  0.040744  0  0.084708  0.085935  0  1.005552  0
H  H4  1  0.14831788  0.44556295  0.40180333  1  -0.007901  0  0.084502  0.078558  0  0.997567  0
H  H5  1  0.11775376  0.59961170  0.40562756  1  0.004341  0  0.080784  0.074903  0  1.009506  0
H  H6  1  0.93636722  0.48095520  0.37691211  1  0.007083  0  0.082484  0.075828  0  0.989293  0
H  H7  1  0.90336734  0.62117570  0.41776044  1  0.031794  0  0.086593  0.086559  0  0.990472  0
H  H8  1  0.90850990  0.40145811  0.44093189  1  0.060838  0  0.090625  0.104975  0  1.014008  0
H  H9  1  0.92497947  0.64047909  0.51619558  1  0.057995  0  0.094391  0.105677  0  0.979401  0
H  H10  1  0.14479739  0.46151482  0.61585247  1  0.031022  0  0.088877  0.085074  0  0.982865  0
H  H11  1  0.11627592  0.56444890  0.61453342  1  0.021052  0  0.086345  0.080493  0  0.988833  0
H  H12  1  0.93225384  0.43268221  0.58585055  1  0.050558  0  0.0916  0.098984  0  0.991953  0
H  H13  1  0.90429653  0.52973117  0.61516132  1  0.056404  0  0.098503  0.110036  0  0.966767  0
H  H14  1  0.46570373  0.37601678  0.89736278  1  0.028985  0  0.101719  0.114072  0  1.002089  0
H  H15  1  0.35202944  0.61575166  0.84407161  1  0.071733  0  0.106956  0.123913  0  0.998908  0
H  H16  1  0.65663302  0.10638478  0.54769285  1  0.111274  0  0.114491  0.140454  0  1.006104  0
H  H17  1  0.61159586  0.88533138  0.58681458  1  0.131875  0  0.115414  0.14411  0  0.987956  0
H  H18  1  0.64914834  0.40502641  0.31160307  1  0.471585  0  0.289727  0.301216  0  0.984225  0
H  H19  1  0.72527735  0.42594256  0.23127742  1  0.412499  0  0.292144  0.27958  0  0.965068  0
H  H20  1  0.27307121  0.56151131  0.33647292  1  0.448024  0  0.288723  0.279433  0  1.003976  0
H  H21  1  0.17177861  0.56046098  0.25891217  1  0.402318  0  0.290476  0.277105  0  0.96528  0
H  H22  1  0.27166094  0.09265438  0.40418944  1  0.46886  0  0.305889  0.295291  0  0.954486  0
H  H23  1  0.25000653  0.18496265  0.36689507  1  0.448478  0  0.317568  0.305962  0  0.930871  0
H  H24  1  0.28562410  0.91657895  0.39273876  1  0.438938  0  0.299659  0.28631  0  0.966873  0
H  H25  1  0.23268589  0.82414099  0.38012823  1  0.440772  0  0.312133  0.301277  0  0.934898  0
H  H26  1  0.23375084  0.28461759  0.43232300  1  0.426908  0  0.313109  0.300721  0  0.947744  0
H  H27  1  0.32469950  0.36492057  0.45316330  1  0.534026  0  0.298033  0.314308  0  1.013396  0
H  H28  1  0.33864831  0.72939876  0.34335246  1  0.454602  0  0.307532  0.296748  0  0.958542  0
H  H29  1  0.40061529  0.64600053  0.38811105  1  0.525327  0  0.299191  0.319703  0  1.013401  0
H  H30  1  0.80825802  0.17961224  0.65281607  1  0.61348  0  0.355898  0.402644  0  0.836168  0
H  H31  1  0.48159146  0.65321463  0.69308958  1  0.573742  0  0.297351  0.330798  0  0.970732  0
H  H32  1  0.54415462  0.29953357  0.79755889  1  0.438094  0  0.311644  0.304186  0  0.940036  0
H  H33  1  0.54116487  0.33486808  0.70219983  1  0.510532  0  0.298943  0.31973  0  0.985653  0
H  H34  1  0.32655834  0.64991473  0.71533286  1  0.440471  0  0.341775  0.318137  0  0.851148  0
H  H35  1  0.37189983  0.59770650  0.64165358  1  0.516689  0  0.313557  0.312606  0  0.944705  0
H  H36  1  0.58261583  0.42699582  0.04269594  1  0.401914  0  0.289894  0.283244  0  0.978377  0
H  H37  1  0.64489475  0.37678484  0.12150836  1  0.427998  0  0.293209  0.280728  0  0.973562  0
H  H38  1  0.20366447  0.63076815  0.15303193  1  0.415331  0  0.293084  0.27954  0  0.969566  0
H  H39  1  0.22724493  0.59169068  0.06728222  1  0.444622  0  0.292277  0.283873  0  0.969313  0
C  C40  1  0.47967863  0.49147335  0.35575742  1  1.547222  0  0.215378  0.623307  0  4.129678  0
C  C41  1  0.28978038  0.51819542  0.51219553  1  1.529593  0  0.220515  0.59227  0  4.08958  0
C  C42  1  0.51320766  0.47204893  0.64811919  1  1.565374  0  0.211617  0.611074  0  4.161536  0
C  C43  1  0.76154152  0.51124422  0.48890199  1  1.574523  0  0.231419  0.608446  0  4.069846  0
C  C44  1  0.09811044  0.44890232  0.45457513  1  -0.017087  0  -0.165501  -0.171544  0  3.888187  0
C  C45  1  0.09443310  0.59612259  0.46593638  1  -0.041911  0  -0.165674  -0.17432  0  3.876362  0
C  C46  1  0.95603248  0.45818648  0.43595262  1  -0.00871  0  -0.165336  -0.185646  0  3.870004  0
C  C47  1  0.95075111  0.59971528  0.47187304  1  -0.026493  0  -0.16696  -0.186785  0  3.876042  0
C  C48  1  0.09616115  0.50995151  0.58323420  1  -0.055554  0  -0.156799  -0.165056  0  3.867479  0
C  C49  1  0.14742028  0.51848416  0.50262426  1  0.04097  0  -0.021396  0.00924  0  3.813843  0
C  C50  1  0.90332677  0.51716276  0.49170531  1  0.020211  0  -0.015395  0.032548  0  3.788284  0
C  C51  1  0.95381018  0.49471665  0.57444097  1  -0.027554  0  -0.157217  -0.176615  0  3.827324  0
C  C52  1  0.45295912  0.42461886  0.85584737  1  0.045933  0  -0.105583  -0.273227  0  3.909928  0
C  C53  1  0.38816293  0.55951073  0.82614549  1  0.016442  0  -0.111332  -0.285281  0  3.962729  0
C  C54  1  0.47921516  0.41256033  0.77917887  1  0.476722  0  0.113415  0.327323  0  4.103103  0
C  C55  1  0.41770790  0.54849003  0.75123371  1  0.193835  0  0.089028  0.256415  0  3.976172  0
C  C56  1  0.46755215  0.47754094  0.72606108  1  0.053858  0  -0.030883  -0.24686  0  3.886548  0
C  C57  1  0.41123233  0.49740456  0.88041548  1  0.078741  0  0.000656  0.18923  0  4.174532  0
C  C58  1  0.39930648  0.50708917  0.95979928  1  -0.204149  0  -0.055571  -0.14426  0  4.098025  0
C  C59  1  0.40203723  0.50965718  0.02979329  1  -0.196013  0  -0.043  -0.065805  0  4.168973  0
C  C60  1  0.52187569  0.46269956  0.14414445  1  0.328117  0  0.080058  0.149574  0  4.074328  0
C  C61  1  0.33322544  0.54291331  0.15693919  1  0.411349  0  0.070815  0.138074  0  4.093996  0
C  C62  1  0.54059520  0.45612736  0.22448798  1  0.480033  0  0.071317  0.163284  0  4.083556  0
C  C63  1  0.35124579  0.53621870  0.23693925  1  0.386594  0  0.063515  0.150032  0  4.081823  0
C  C64  1  0.45615170  0.49412853  0.27094168  1  0.008117  0  -0.040784  -0.238552  0  3.972588  0
C  C65  1  0.41852607  0.50620912  0.11040131  1  0.121812  0  -0.03115  -0.071669  0  4.149007  0
C  C66  1  0.38939339  0.17356847  0.45200104  1  0.411145  0  0.106607  0.127573  0  4.013828  0
C  C67  1  0.39871663  0.83211510  0.44313298  1  0.432009  0  0.097861  0.116501  0  4.018371  0
C  C68  1  0.41316852  0.25602386  0.46236195  1  1.081576  0  0.237006  0.372911  0  4.024869  0
C  C69  1  0.42764201  0.74966682  0.44698374  1  1.026326  0  0.231332  0.370704  0  4.043188  0
C  C70  1  0.60694522  0.22744229  0.52427444  1  0.302644  0  0.090728  0.034934  0  4.056538  0
C  C71  1  0.56854411  0.76843913  0.55255273  1  0.31766  0  0.088352  0.049797  0  4.022193  0
C  C72  1  0.58688982  0.14765787  0.52319487  1  0.06203  0  -0.099293  -0.216449  0  4.016072  0
C  C73  1  0.55618177  0.84887743  0.54730361  1  0.061853  0  -0.095663  -0.204251  0  3.986601  0
C  C74  1  0.47516558  0.11902979  0.48587998  1  0.127476  0  -0.004165  0.077299  0  4.137222  0
C  C75  1  0.46863243  0.88240522  0.49150690  1  0.117499  0  -0.006757  0.063007  0  4.145281  0
C  C76  1  0.45674743  0.03697338  0.48282511  1  0.111882  0  -0.045222  -0.112899  0  4.122269  0
C  C77  1  0.45558466  0.96501273  0.48542250  1  -0.513412  0  -0.031457  -0.071652  0  4.110938  0
S  S78  1  0.75745362  0.26102778  0.56191835  1  3.040105  0  0.54792  1.126858  0  5.971838  0
S  S79  1  0.66684004  0.72764838  0.63144195  1  3.232718  0  0.491746  1.127351  0  6.28303  0
N  N80  1  0.52244307  0.28242204  0.49553245  1  -1.194016  0  -0.315491  -0.325534  0  3.400903  0
N  N81  1  0.50788353  0.71854792  0.50284360  1  -1.208701  0  -0.323715  -0.3377  0  3.449281  0
N  N82  1  0.64298043  0.41026713  0.25333911  1  -1.214438  0  -0.616102  -0.628667  0  3.313221  0
N  N83  1  0.26079291  0.57337866  0.27925412  1  -1.202852  0  -0.618684  -0.628975  0  3.332022  0
N  N84  1  0.27882274  0.15131681  0.41354455  1  -1.23914  0  -0.583084  -0.582665  0  3.327772  0
N  N85  1  0.30941600  0.85909196  0.38748225  1  -1.207274  0  -0.591974  -0.591993  0  3.326298  0
N  N86  1  0.32162025  0.30706878  0.43616507  1  -1.246825  0  -0.577379  -0.613488  0  3.326507  0
N  N87  1  0.37002721  0.70318286  0.39362446  1  -1.27885  0  -0.581731  -0.620694  0  3.355036  0
N  N88  1  0.51652140  0.34033333  0.75712645  1  -1.272789  0  -0.589703  -0.613269  0  3.34593  0
N  N89  1  0.39660588  0.61496108  0.69741593  1  -1.167071  0  -0.57569  -0.476394  0  3.389931  0
N  N90  1  0.60971986  0.42880563  0.09944187  1  -1.185621  0  -0.606216  -0.604941  0  3.32794  0
N  N91  1  0.22594108  0.58145614  0.12470818  1  -1.220855  0  -0.608014  -0.606956  0  3.316895  0
O  O92  1  0.52542874  0.42765439  0.38692177  1  -1.167057  0  -0.316302  -0.544831  0  2.315903  0
O  O93  1  0.45359374  0.55191396  0.39365141  1  -1.196312  0  -0.309655  -0.570125  0  2.343602  0
O  O94  1  0.34732200  0.45483975  0.49938506  1  -1.19649  0  -0.305499  -0.564327  0  2.407217  0
O  O95  1  0.34377356  0.58180145  0.53463752  1  -1.187398  0  -0.323376  -0.578875  0  2.336887  0
O  O96  1  0.51320288  0.40446707  0.61701921  1  -1.154073  0  -0.312854  -0.534917  0  2.345776  0
O  O97  1  0.55095843  0.53513093  0.61741783  1  -1.174242  0  -0.313665  -0.55452  0  2.416811  0
O  O98  1  0.71897201  0.44498697  0.51004017  1  -1.173956  0  -0.317593  -0.556896  0  2.42131  0
O  O99  1  0.69587570  0.57128310  0.46737116  1  -1.166624  0  -0.317345  -0.537288  0  2.36156  0
O  O100  1  0.83034553  0.28149508  0.49871755  1  -1.271999  0  -0.292808  -0.489773  0  2.143358  0
O  O101  1  0.74319837  0.31237055  0.62512897  1  -1.277096  0  -0.299687  -0.518951  0  2.179139  0
O  O102  1  0.81970943  0.17995000  0.59777630  1  -1.160743  0  -0.361435  -0.533223  0  2.144297  0
O  O103  1  0.71731236  0.65530991  0.60230171  1  -1.317641  0  -0.330664  -0.568952  0  2.260013  0
O  O104  1  0.75560787  0.78862013  0.65308657  1  -1.319215  0  -0.365208  -0.580705  0  2.096222  0
O  O105  1  0.57625653  0.71330328  0.69205790  1  -1.315285  0  -0.369996  -0.610115  0  2.19501  0
