# generated using pymatgen
data_ZnH16C16(SN5)2
_symmetry_space_group_name_H-M   'P 1'
_cell_length_a   9.11134001
_cell_length_b   9.03336211
_cell_length_c   13.82569824
_cell_angle_alpha   89.99991842
_cell_angle_beta   89.99991114
_cell_angle_gamma   120.28598428
_symmetry_Int_Tables_number   1
_chemical_formula_structural   ZnH16C16(SN5)2
_chemical_formula_sum   'Zn2 H32 C32 S4 N20'
_cell_volume   982.63134968
_cell_formula_units_Z   2
loop_
 _symmetry_equiv_pos_site_id
 _symmetry_equiv_pos_as_xyz
  1  'x, y, z'
loop_
 _atom_site_type_symbol
 _atom_site_label
 _atom_site_symmetry_multiplicity
 _atom_site_fract_x
 _atom_site_fract_y
 _atom_site_fract_z
 _atom_site_occupancy
 _atom_site_hle17_bader_spin_density
 _atom_site_hle17_ddec_charge
 _atom_site_hle17_ddec_spin_density
 _atom_site_hle17_ddec_sum_bond_order
 _atom_site_hle17_magmom
 _atom_site_hse06_10hf_bader_spin_density
 _atom_site_hse06_10hf_ddec_charge
 _atom_site_hse06_10hf_ddec_spin_density
 _atom_site_hse06_10hf_ddec_sum_bond_order
 _atom_site_hse06_10hf_magmom
 _atom_site_hse06_bader_spin_density
 _atom_site_hse06_ddec_charge
 _atom_site_hse06_ddec_spin_density
 _atom_site_hse06_ddec_sum_bond_order
 _atom_site_hse06_magmom
 _atom_site_pbe_bader_spin_density
 _atom_site_pbe_cm5_charge
 _atom_site_pbe_ddec_charge
 _atom_site_pbe_ddec_spin_density
 _atom_site_pbe_ddec_sum_bond_order
 _atom_site_pbe_magmom
Zn  Zn0  1  0.00000110  0.00000111  0.00000072  1  0  0.931916  0  2.029728  0  0  0.746473  0  2.477877  0  0  0.787533  0  2.435759  0  0  0.701335  0.718344  0  2.506248  0
Zn  Zn1  1  0.49999862  0.99999853  0.50000007  1  0  0.931892  0  2.029714  0  0  0.746442  0  2.477872  0  0  0.7875  0  2.435759  0  0  0.701318  0.718313  0  2.506246  0
H  H2  1  0.35337289  0.70674468  0.27217092  1  0  0.089174  0  0.938771  0  0  0.094409  0  1.013542  0  0  0.095458  0  1.013164  0  0  0.124244  0.093554  0  1.01398  0
H  H3  1  0.14662778  0.29325595  0.77217055  1  0  0.089181  0  0.938751  0  0  0.094419  0  1.013517  0  0  0.09545  0  1.013125  0  0  0.124245  0.093563  0  1.013951  0
H  H4  1  0.85337211  0.70674471  0.22782787  1  0  0.089171  0  0.938809  0  0  0.094388  0  1.013594  0  0  0.095424  0  1.013209  0  0  0.124233  0.093533  0  1.014029  0
H  H5  1  0.64662922  0.29325820  0.72782968  1  0  0.089176  0  0.938727  0  0  0.094417  0  1.013492  0  0  0.095461  0  1.01311  0  0  0.124236  0.093559  0  1.013928  0
H  H6  1  0.46652829  0.93305718  0.25113022  1  0  0.093574  0  0.943577  0  0  0.10207  0  1.012148  0  0  0.102046  0  1.012966  0  0  0.130061  0.101887  0  1.011835  0
H  H7  1  0.03346964  0.06694197  0.75113019  1  0  0.093627  0  0.943542  0  0  0.102095  0  1.012137  0  0  0.102052  0  1.012943  0  0  0.130069  0.101911  0  1.011823  0
H  H8  1  0.96652978  0.93305694  0.24886896  1  0  0.09358  0  0.943615  0  0  0.10204  0  1.012197  0  0  0.102005  0  1.013005  0  0  0.130046  0.101859  0  1.011882  0
H  H9  1  0.53347098  0.06694412  0.74887182  1  0  0.093607  0  0.943573  0  0  0.102084  0  1.012155  0  0  0.102055  0  1.012969  0  0  0.130076  0.101902  0  1.011837  0
H  H10  1  0.72079008  0.05282910  0.13554647  1  0  0.093567  0  0.967828  0  0  0.096214  0  1.045014  0  0  0.098784  0  1.042401  0  0  0.123608  0.094291  0  1.046926  0
H  H11  1  0.77920837  0.94717089  0.63554681  1  0  0.09353  0  0.967882  0  0  0.096198  0  1.045043  0  0  0.098766  0  1.042434  0  0  0.123618  0.094274  0  1.046954  0
H  H12  1  0.83203944  0.05282911  0.36445420  1  0  0.093521  0  0.967864  0  0  0.096171  0  1.045048  0  0  0.09874  0  1.042436  0  0  0.12359  0.094249  0  1.04696  0
H  H13  1  0.66796016  0.94717206  0.86445465  1  0  0.093534  0  0.967852  0  0  0.096179  0  1.045044  0  0  0.09875  0  1.04243  0  0  0.123598  0.094255  0  1.046956  0
H  H14  1  0.27921140  0.94717442  0.86445558  1  0  0.093548  0  0.967798  0  0  0.09619  0  1.045  0  0  0.098759  0  1.042387  0  0  0.123593  0.094263  0  1.046913  0
H  H15  1  0.22078870  0.05282819  0.36445306  1  0  0.093531  0  0.967854  0  0  0.096178  0  1.045046  0  0  0.098746  0  1.042434  0  0  0.123601  0.094253  0  1.046957  0
H  H16  1  0.16795936  0.94717043  0.63554712  1  0  0.093546  0  0.967832  0  0  0.096195  0  1.045015  0  0  0.098763  0  1.042405  0  0  0.123586  0.09427  0  1.046927  0
H  H17  1  0.33203863  0.05282749  0.13554450  1  0  0.093545  0  0.967834  0  0  0.096186  0  1.045029  0  0  0.098756  0  1.042415  0  0  0.123593  0.094261  0  1.04694  0
H  H18  1  0.67925212  0.59325635  0.03221475  1  0  0.099376  0  0.970416  0  0  0.108967  0  1.031883  0  0  0.110922  0  1.03151  0  0  0.112473  0.107514  0  1.032326  0
H  H19  1  0.82074790  0.40674521  0.53221483  1  0  0.099406  0  0.97044  0  0  0.109001  0  1.031897  0  0  0.110954  0  1.031529  0  0  0.112487  0.107549  0  1.032341  0
H  H20  1  0.41400585  0.59325304  0.46778565  1  0  0.099446  0  0.970404  0  0  0.109037  0  1.031862  0  0  0.11099  0  1.031498  0  0  0.112502  0.107582  0  1.032306  0
H  H21  1  0.08599692  0.40674590  0.96778525  1  0  0.099417  0  0.970417  0  0  0.109014  0  1.031868  0  0  0.110967  0  1.031502  0  0  0.112489  0.107559  0  1.032317  0
H  H22  1  0.32074810  0.40674845  0.96778368  1  0  0.099362  0  0.970398  0  0  0.108978  0  1.031828  0  0  0.110932  0  1.031462  0  0  0.11248  0.107524  0  1.032279  0
H  H23  1  0.17925152  0.59325369  0.46778360  1  0  0.099371  0  0.970429  0  0  0.108959  0  1.031902  0  0  0.110914  0  1.031534  0  0  0.112472  0.107505  0  1.032347  0
H  H24  1  0.58599610  0.40674330  0.53221278  1  0  0.099375  0  0.9704  0  0  0.108968  0  1.031865  0  0  0.11092  0  1.031498  0  0  0.11246  0.107514  0  1.032311  0
H  H25  1  0.91400487  0.59325284  0.03221463  1  0  0.099421  0  0.970413  0  0  0.109016  0  1.031863  0  0  0.11097  0  1.031498  0  0  0.112497  0.107561  0  1.032307  0
H  H26  1  0.40087252  0.51252584  0.14928099  1  0  0.115375  0  0.985059  0  0  0.121115  0  1.054788  0  0  0.123451  0  1.053851  0  0  0.115896  0.119402  0  1.055543  0
H  H27  1  0.09912478  0.48747266  0.64928049  1  0  0.115381  0  0.985083  0  0  0.121123  0  1.054799  0  0  0.123468  0  1.053852  0  0  0.115903  0.119409  0  1.055555  0
H  H28  1  0.61165562  0.51252537  0.35071881  1  0  0.115363  0  0.985033  0  0  0.121118  0  1.054738  0  0  0.123452  0  1.053802  0  0  0.115885  0.119404  0  1.055495  0
H  H29  1  0.88834703  0.48747506  0.85072019  1  0  0.1154  0  0.985052  0  0  0.121148  0  1.05477  0  0  0.123485  0  1.053831  0  0  0.115908  0.119434  0  1.055526  0
H  H30  1  0.59912675  0.48747546  0.85071816  1  0  0.115375  0  0.985112  0  0  0.12112  0  1.054839  0  0  0.123458  0  1.053898  0  0  0.115903  0.119406  0  1.055594  0
H  H31  1  0.90087465  0.51252625  0.35071721  1  0  0.115363  0  0.985086  0  0  0.121128  0  1.054771  0  0  0.123476  0  1.053821  0  0  0.115911  0.119416  0  1.055528  0
H  H32  1  0.38834554  0.48747401  0.64927890  1  0  0.115398  0  0.985033  0  0  0.121131  0  1.054758  0  0  0.123476  0  1.053811  0  0  0.115904  0.119418  0  1.055515  0
H  H33  1  0.11165397  0.51252671  0.14928258  1  0  0.115394  0  0.985061  0  0  0.121147  0  1.054772  0  0  0.123488  0  1.053829  0  0  0.115923  0.119436  0  1.055528  0
C  C34  1  0.40344904  0.80689722  0.21651796  1  0  0.094769  0  3.607484  0  0  0.021668  0  3.845087  0  0  0.031259  0  3.853996  0  0  0.059108  0.015215  0  3.839281  0
C  C35  1  0.09654906  0.19310209  0.71651846  1  0  0.094675  0  3.607551  0  0  0.02158  0  3.845184  0  0  0.031276  0  3.853939  0  0  0.059067  0.015126  0  3.839375  0
C  C36  1  0.90344863  0.80689635  0.28348069  1  0  0.094687  0  3.607618  0  0  0.021668  0  3.845129  0  0  0.03133  0  3.853934  0  0  0.059128  0.015217  0  3.839321  0
C  C37  1  0.59655134  0.19310519  0.78348264  1  0  0.094723  0  3.607513  0  0  0.021629  0  3.845126  0  0  0.031248  0  3.853993  0  0  0.059078  0.015175  0  3.839317  0
C  C38  1  0.67552588  0.91793492  0.12211241  1  0  0.165038  0  3.63507  0  0  0.103164  0  3.90362  0  0  0.116567  0  3.91574  0  0  0.138891  0.094544  0  3.89514  0
C  C39  1  0.82447374  0.08206624  0.62211279  1  0  0.165109  0  3.634997  0  0  0.103213  0  3.903546  0  0  0.116615  0  3.915671  0  0  0.13885  0.094593  0  3.895068  0
C  C40  1  0.74240987  0.91793345  0.37788752  1  0  0.165039  0  3.635089  0  0  0.103168  0  3.90363  0  0  0.11657  0  3.915759  0  0  0.138893  0.094548  0  3.895153  0
C  C41  1  0.75759030  0.08206702  0.87788869  1  0  0.165091  0  3.635116  0  0  0.103211  0  3.903663  0  0  0.116613  0  3.915786  0  0  0.138857  0.094591  0  3.895183  0
C  C42  1  0.32447671  0.08206971  0.87788963  1  0  0.165068  0  3.635036  0  0  0.10319  0  3.903572  0  0  0.116593  0  3.915692  0  0  0.138887  0.094571  0  3.89509  0
C  C43  1  0.17552506  0.91793331  0.37788636  1  0  0.16511  0  3.635015  0  0  0.103221  0  3.903553  0  0  0.116624  0  3.915678  0  0  0.138872  0.094602  0  3.895073  0
C  C44  1  0.25758845  0.08206434  0.62211308  1  0  0.165036  0  3.635022  0  0  0.10318  0  3.903566  0  0  0.116583  0  3.915695  0  0  0.138948  0.094561  0  3.895086  0
C  C45  1  0.24241023  0.91793300  0.12211118  1  0  0.165021  0  3.635078  0  0  0.103151  0  3.903623  0  0  0.116553  0  3.915744  0  0  0.13886  0.094532  0  3.89514  0
C  C46  1  0.64779208  0.67723495  0.07127170  1  0  -0.001337  0  3.75647  0  0  -0.032816  0  4.02044  0  0  -0.031401  0  4.040068  0  0  -0.005605  -0.03373  0  4.007193  0
C  C47  1  0.85220840  0.32276580  0.57127183  1  0  -0.00136  0  3.756566  0  0  -0.032857  0  4.020538  0  0  -0.031441  0  4.040165  0  0  -0.00561  -0.033773  0  4.007296  0
C  C48  1  0.52944407  0.67723204  0.42872857  1  0  -0.001405  0  3.756437  0  0  -0.03289  0  4.020398  0  0  -0.031478  0  4.040027  0  0  -0.005631  -0.033803  0  4.007151  0
C  C49  1  0.97055712  0.32276693  0.92872858  1  0  -0.001327  0  3.756486  0  0  -0.032819  0  4.020441  0  0  -0.031406  0  4.040069  0  0  -0.00562  -0.033735  0  4.0072  0
C  C50  1  0.35220877  0.32276921  0.92872817  1  0  -0.001257  0  3.75631  0  0  -0.032766  0  4.020262  0  0  -0.031354  0  4.039891  0  0  -0.00561  -0.033683  0  4.007022  0
C  C51  1  0.14779276  0.67723358  0.42872660  1  0  -0.001287  0  3.756453  0  0  -0.032782  0  4.020414  0  0  -0.031369  0  4.040045  0  0  -0.005601  -0.033696  0  4.007168  0
C  C52  1  0.47055725  0.32276495  0.57127275  1  0  -0.001324  0  3.756487  0  0  -0.032803  0  4.02046  0  0  -0.031386  0  4.040087  0  0  -0.005607  -0.033718  0  4.007216  0
C  C53  1  0.02944341  0.67723309  0.07127130  1  0  -0.001326  0  3.756448  0  0  -0.032811  0  4.020402  0  0  -0.031398  0  4.040033  0  0  -0.005609  -0.033724  0  4.007155  0
C  C54  1  0.50738631  0.63466529  0.12697025  1  0  -0.06749  0  3.676707  0  0  -0.109266  0  3.940471  0  0  -0.1073  0  3.95891  0  0  -0.004162  -0.110525  0  3.928091  0
C  C55  1  0.99261565  0.36533568  0.62696946  1  0  -0.06749  0  3.676672  0  0  -0.109264  0  3.940432  0  0  -0.107309  0  3.958873  0  0  -0.004179  -0.110523  0  3.928055  0
C  C56  1  0.62728054  0.63466451  0.37302937  1  0  -0.067522  0  3.676592  0  0  -0.109302  0  3.940358  0  0  -0.107336  0  3.958805  0  0  -0.004169  -0.110561  0  3.927979  0
C  C57  1  0.87271838  0.36533727  0.87303232  1  0  -0.067554  0  3.676656  0  0  -0.109339  0  3.940416  0  0  -0.107374  0  3.958858  0  0  -0.004197  -0.110598  0  3.928036  0
C  C58  1  0.49261864  0.36533917  0.87303107  1  0  -0.067526  0  3.676653  0  0  -0.109313  0  3.940421  0  0  -0.10735  0  3.958861  0  0  -0.004188  -0.110572  0  3.928043  0
C  C59  1  0.00738378  0.63466323  0.37302896  1  0  -0.06756  0  3.67665  0  0  -0.109357  0  3.940421  0  0  -0.107403  0  3.958858  0  0  -0.004218  -0.110617  0  3.928045  0
C  C60  1  0.37271888  0.36533439  0.62696906  1  0  -0.067577  0  3.676665  0  0  -0.109333  0  3.940438  0  0  -0.107378  0  3.958878  0  0  -0.004167  -0.110593  0  3.928061  0
C  C61  1  0.12728214  0.63466275  0.12696900  1  0  -0.067599  0  3.676659  0  0  -0.109383  0  3.940418  0  0  -0.107421  0  3.958855  0  0  -0.004234  -0.110644  0  3.928043  0
C  C62  1  0.11875673  0.23751224  0.19762167  1  0  0.261159  0  4.09098  0  0  0.246917  0  4.394132  0  0  0.268453  0  4.406269  0  0  0.123933  0.232329  0  4.385499  0
C  C63  1  0.38123498  0.76247810  0.69761991  1  0  0.261177  0  4.091098  0  0  0.246934  0  4.394249  0  0  0.268472  0  4.406387  0  0  0.123933  0.232349  0  4.385617  0
C  C64  1  0.61875924  0.23751940  0.30237851  1  0  0.261103  0  4.090968  0  0  0.246861  0  4.394134  0  0  0.268397  0  4.406273  0  0  0.123899  0.232274  0  4.385504  0
C  C65  1  0.88124253  0.76248014  0.80238254  1  0  0.261193  0  4.090969  0  0  0.246958  0  4.394114  0  0  0.268495  0  4.406253  0  0  0.123973  0.232375  0  4.385481  0
S  S66  1  0.15772492  0.31544981  0.30648628  1  0  -0.383994  0  1.983804  0  0  -0.363134  0  2.264894  0  0  -0.377431  0  2.260511  0  0  -0.183021  -0.352971  0  2.267665  0
S  S67  1  0.34227308  0.68455323  0.80648608  1  0  -0.383994  0  1.98392  0  0  -0.363127  0  2.265008  0  0  -0.377425  0  2.260627  0  0  -0.183016  -0.352969  0  2.267778  0
S  S68  1  0.65772604  0.31545046  0.19351235  1  0  -0.383993  0  1.983806  0  0  -0.36313  0  2.264901  0  0  -0.377428  0  2.26052  0  0  -0.183019  -0.352968  0  2.267672  0
S  S69  1  0.84227624  0.68454956  0.69351648  1  0  -0.383995  0  1.983775  0  0  -0.36314  0  2.264858  0  0  -0.377435  0  2.260473  0  0  -0.183023  -0.352984  0  2.267627  0
N  N70  1  0.52635251  0.78876324  0.15847454  1  0  -0.084729  0  3.566682  0  0  0.005159  0  3.789624  0  0  -0.01017  0  3.814942  0  0  -0.246335  0.015343  0  3.772351  0
N  N71  1  0.97364646  0.21123601  0.65847537  1  0  -0.084713  0  3.566646  0  0  0.005177  0  3.789588  0  0  -0.010182  0  3.814887  0  0  -0.246288  0.01536  0  3.772315  0
N  N72  1  0.76241149  0.78876317  0.34152485  1  0  -0.084584  0  3.566518  0  0  0.005265  0  3.789478  0  0  -0.010086  0  3.814783  0  0  -0.246315  0.015447  0  3.772206  0
N  N73  1  0.73758821  0.21123811  0.84152664  1  0  -0.084706  0  3.566661  0  0  0.005168  0  3.789629  0  0  -0.010169  0  3.814942  0  0  -0.246326  0.015352  0  3.772356  0
N  N74  1  0.47364849  0.21123853  0.84152605  1  0  -0.084643  0  3.566629  0  0  0.005239  0  3.789578  0  0  -0.010099  0  3.814891  0  0  -0.246271  0.015422  0  3.772303  0
N  N75  1  0.02635234  0.78876354  0.34152450  1  0  -0.084626  0  3.566559  0  0  0.005241  0  3.789502  0  0  -0.010108  0  3.814809  0  0  -0.246294  0.015422  0  3.772231  0
N  N76  1  0.23758730  0.21123638  0.65847430  1  0  -0.084606  0  3.566558  0  0  0.005265  0  3.789519  0  0  -0.010095  0  3.81482  0  0  -0.246347  0.015447  0  3.772246  0
N  N77  1  0.26241106  0.78876319  0.15847540  1  0  -0.084614  0  3.566517  0  0  0.005248  0  3.789491  0  0  -0.010081  0  3.81481  0  0  -0.246307  0.01543  0  3.772219  0
N  N78  1  0.75203410  0.85328948  0.06953422  1  0  -0.359125  0  3.26059  0  0  -0.285955  0  3.537  0  0  -0.304174  0  3.553654  0  0  -0.341868  -0.273591  0  3.525369  0
N  N79  1  0.74796575  0.14671192  0.56953389  1  0  -0.359155  0  3.260548  0  0  -0.285951  0  3.536933  0  0  -0.304166  0  3.553583  0  0  -0.341852  -0.273588  0  3.525305  0
N  N80  1  0.60125747  0.85328745  0.43046725  1  0  -0.359127  0  3.260609  0  0  -0.285942  0  3.537007  0  0  -0.304158  0  3.553657  0  0  -0.341852  -0.273578  0  3.525376  0
N  N81  1  0.89874482  0.14671261  0.93046604  1  0  -0.359184  0  3.260601  0  0  -0.28599  0  3.536989  0  0  -0.304206  0  3.553643  0  0  -0.341828  -0.273628  0  3.52536  0
N  N82  1  0.24796675  0.14671468  0.93046637  1  0  -0.359227  0  3.260547  0  0  -0.286007  0  3.536913  0  0  -0.304223  0  3.553563  0  0  -0.341873  -0.273645  0  3.525282  0
N  N83  1  0.25203304  0.85328763  0.43046526  1  0  -0.359192  0  3.260557  0  0  -0.285966  0  3.536909  0  0  -0.304184  0  3.553565  0  0  -0.341839  -0.273602  0  3.525278  0
N  N84  1  0.39874322  0.14671017  0.56953407  1  0  -0.359113  0  3.260534  0  0  -0.285961  0  3.536962  0  0  -0.304176  0  3.553609  0  0  -0.341878  -0.273599  0  3.525332  0
N  N85  1  0.10125634  0.85328677  0.06953311  1  0  -0.359136  0  3.260589  0  0  -0.285943  0  3.536974  0  0  -0.304159  0  3.553625  0  0  -0.341831  -0.27358  0  3.525342  0
N  N86  1  0.09099010  0.18197936  0.11749484  1  0  -0.541999  0  2.896728  0  0  -0.488345  0  3.177744  0  0  -0.506923  0  3.182458  0  0  -0.390775  -0.475681  0  3.17435  0
N  N87  1  0.40900624  0.81801817  0.61749372  1  0  -0.542046  0  2.896752  0  0  -0.488394  0  3.177775  0  0  -0.506973  0  3.182491  0  0  -0.390785  -0.475734  0  3.174386  0
N  N88  1  0.59098908  0.18198044  0.38250326  1  0  -0.541952  0  2.896656  0  0  -0.488302  0  3.177677  0  0  -0.506879  0  3.182393  0  0  -0.390744  -0.475639  0  3.174288  0
N  N89  1  0.90901279  0.81802048  0.88250648  1  0  -0.542053  0  2.896715  0  0  -0.488405  0  3.17773  0  0  -0.506983  0  3.182447  0  0  -0.390823  -0.475745  0  3.17434  0
