# generated using pymatgen
data_ZnH12C16(NO2)2
_symmetry_space_group_name_H-M   'P 1'
_cell_length_a   7.40726783
_cell_length_b   7.40732701
_cell_length_c   29.26200000
_cell_angle_alpha   90.00000000
_cell_angle_beta   90.00000000
_cell_angle_gamma   90.00000000
_symmetry_Int_Tables_number   1
_chemical_formula_structural   ZnH12C16(NO2)2
_chemical_formula_sum   'Zn4 H48 C64 N8 O16'
_cell_volume   1605.54902847
_cell_formula_units_Z   4
loop_
 _symmetry_equiv_pos_site_id
 _symmetry_equiv_pos_as_xyz
  1  'x, y, z'
loop_
 _atom_site_type_symbol
 _atom_site_label
 _atom_site_symmetry_multiplicity
 _atom_site_fract_x
 _atom_site_fract_y
 _atom_site_fract_z
 _atom_site_occupancy
 _atom_site_hle17_bader_spin_density
 _atom_site_hle17_ddec_charge
 _atom_site_hle17_ddec_spin_density
 _atom_site_hle17_ddec_sum_bond_order
 _atom_site_hle17_magmom
 _atom_site_hse06_10hf_bader_spin_density
 _atom_site_hse06_10hf_ddec_charge
 _atom_site_hse06_10hf_ddec_spin_density
 _atom_site_hse06_10hf_ddec_sum_bond_order
 _atom_site_hse06_10hf_magmom
 _atom_site_hse06_bader_spin_density
 _atom_site_hse06_ddec_charge
 _atom_site_hse06_ddec_spin_density
 _atom_site_hse06_ddec_sum_bond_order
 _atom_site_hse06_magmom
 _atom_site_pbe_bader_charge
 _atom_site_pbe_bader_spin_density
 _atom_site_pbe_cm5_charge
 _atom_site_pbe_ddec_charge
 _atom_site_pbe_ddec_spin_density
 _atom_site_pbe_ddec_sum_bond_order
 _atom_site_pbe_magmom
Zn  Zn0  1  0.74297300  0.68662285  0.69156756  1  0  0.978245  0  1.88048  0  0  0.778373  0  2.367854  0  0  0.827684  0  2.310839  0  1.247072  0  0.685361  0.744024  0  2.407023  0
Zn  Zn1  1  0.25702729  0.31337755  0.19156722  1  0  0.978209  0  1.880462  0  0  0.778329  0  2.36782  0  0  0.827643  0  2.310804  0  1.247027  0  0.685326  0.743975  0  2.406995  0
Zn  Zn2  1  0.31337870  0.74296976  0.44156825  1  0  0.978197  0  1.880389  0  0  0.778395  0  2.367766  0  0  0.827708  0  2.310747  0  1.247067  0  0.685367  0.744044  0  2.406941  0
Zn  Zn3  1  0.68662159  0.25703064  0.94156756  1  0  0.978155  0  1.880421  0  0  0.778356  0  2.367802  0  0  0.82767  0  2.31078  0  1.247058  0  0.685348  0.744005  0  2.406975  0
H  H4  1  0.27883425  0.01973721  0.74610177  1  0  0.097852  0  0.955802  0  0  0.108593  0  1.016766  0  0  0.111895  0  1.015823  0  0.038829  0  0.097835  0.106292  0  1.017546  0
H  H5  1  0.72116469  0.98026049  0.24610177  1  0  0.097869  0  0.95576  0  0  0.108566  0  1.016766  0  0  0.111868  0  1.015823  0  0.038801  0  0.097838  0.106266  0  1.017544  0
H  H6  1  0.98026427  0.27883068  0.49610109  1  0  0.097807  0  0.955709  0  0  0.108542  0  1.016695  0  0  0.111844  0  1.015752  0  0.0384  0  0.097815  0.106242  0  1.017472  0
H  H7  1  0.01973332  0.72117108  0.99610143  1  0  0.097873  0  0.955694  0  0  0.10858  0  1.016705  0  0  0.111882  0  1.015762  0  0.038415  0  0.097829  0.106281  0  1.017481  0
H  H8  1  0.10265998  0.46711722  0.73544221  1  0  0.127162  0  0.991303  0  0  0.134022  0  1.053763  0  0  0.137722  0  1.052344  0  0.1747  0  0.112031  0.131332  0  1.054991  0
H  H9  1  0.89734031  0.53288453  0.23544221  1  0  0.127181  0  0.991289  0  0  0.13404  0  1.053746  0  0  0.137739  0  1.052329  0  0.174671  0  0.112043  0.13135  0  1.054974  0
H  H10  1  0.53288069  0.10266051  0.48544290  1  0  0.127144  0  0.991404  0  0  0.134002  0  1.053853  0  0  0.137701  0  1.052434  0  0.174723  0  0.112042  0.131311  0  1.055081  0
H  H11  1  0.46712230  0.89733854  0.98544290  1  0  0.12715  0  0.991453  0  0  0.13402  0  1.053892  0  0  0.13772  0  1.052473  0  0.174731  0  0.112058  0.13133  0  1.05512  0
H  H12  1  0.47645233  0.55434707  0.84716937  1  0  0.107239  0  0.951791  0  0  0.117508  0  1.012783  0  0  0.12067  0  1.011744  0  0.065485  0  0.110409  0.115227  0  1.013714  0
H  H13  1  0.52354797  0.44565064  0.34716937  1  0  0.107252  0  0.95179  0  0  0.11752  0  1.012787  0  0  0.12068  0  1.01175  0  0.065475  0  0.110425  0.115239  0  1.013718  0
H  H14  1  0.44565420  0.47644852  0.59717005  1  0  0.107206  0  0.951839  0  0  0.117477  0  1.012834  0  0  0.12064  0  1.011798  0  0.065459  0  0.110397  0.115197  0  1.013764  0
H  H15  1  0.55434475  0.52354783  0.09717005  1  0  0.107222  0  0.951789  0  0  0.117483  0  1.012797  0  0  0.120647  0  1.01176  0  0.065452  0  0.110398  0.115203  0  1.013727  0
H  H16  1  0.38002946  0.08452982  0.82365970  1  0  0.088126  0  0.937945  0  0  0.101153  0  0.994796  0  0  0.10431  0  0.992735  0  0.108944  0  0.10084  0.098819  0  0.996361  0
H  H17  1  0.61997083  0.91546654  0.32365901  1  0  0.088135  0  0.937925  0  0  0.101133  0  0.994803  0  0  0.104297  0  0.992737  0  0.108907  0  0.100815  0.0988  0  0.996365  0
H  H18  1  0.91547250  0.38002777  0.57365901  1  0  0.08809  0  0.937899  0  0  0.101119  0  0.994759  0  0  0.104274  0  0.992701  0  0.10895  0  0.100833  0.098785  0  0.996325  0
H  H19  1  0.08452779  0.61997398  0.07365935  1  0  0.088129  0  0.937893  0  0  0.101155  0  0.994747  0  0  0.104312  0  0.992689  0  0.108973  0  0.100844  0.098821  0  0.996313  0
H  H20  1  0.94820117  0.32173549  0.78197013  1  0  0.136661  0  0.96323  0  0  0.144556  0  1.023492  0  0  0.148129  0  1.022044  0  0.167709  0  0.116415  0.141928  0  1.024794  0
H  H21  1  0.05179643  0.67826491  0.28197047  1  0  0.136708  0  0.963181  0  0  0.144571  0  1.023479  0  0  0.148143  0  1.022033  0  0.167726  0  0.116429  0.141943  0  1.024782  0
H  H22  1  0.67826358  0.94820304  0.53197047  1  0  0.136697  0  0.963171  0  0  0.144588  0  1.023434  0  0  0.148162  0  1.021983  0  0.167715  0  0.11642  0.141961  0  1.024735  0
H  H23  1  0.32173671  0.05179601  0.03197013  1  0  0.136651  0  0.963236  0  0  0.144548  0  1.023491  0  0  0.148121  0  1.022045  0  0.167708  0  0.116409  0.141921  0  1.024793  0
H  H24  1  0.00460089  0.89161043  0.81837571  1  0  0.100268  0  0.92248  0  0  0.115574  0  0.974187  0  0  0.118341  0  0.972664  0  0.092516  0  0.108317  0.113529  0  0.975402  0
H  H25  1  0.99539671  0.10839133  0.31837537  1  0  0.100277  0  0.922475  0  0  0.115576  0  0.974183  0  0  0.118343  0  0.97266  0  0.092509  0  0.108304  0.113531  0  0.975398  0
H  H26  1  0.10838949  0.00460085  0.56837537  1  0  0.100241  0  0.922554  0  0  0.115553  0  0.974244  0  0  0.118319  0  0.972724  0  0.092529  0  0.108305  0.113508  0  0.975457  0
H  H27  1  0.89160945  0.99540090  0.06837571  1  0  0.100257  0  0.92246  0  0  0.115558  0  0.974161  0  0  0.118326  0  0.972636  0  0.092496  0  0.108291  0.113513  0  0.975375  0
H  H28  1  0.70485098  0.64684872  0.78927107  1  0  0.093748  0  0.948542  0  0  0.10169  0  1.010045  0  0  0.104706  0  1.007444  0  0.117037  0  0.12062  0.099406  0  1.012062  0
H  H29  1  0.29514661  0.35315303  0.28927107  1  0  0.093791  0  0.948494  0  0  0.101726  0  1.010009  0  0  0.104743  0  1.007404  0  0.117026  0  0.120613  0.09944  0  1.012023  0
H  H30  1  0.35315450  0.70484940  0.53927175  1  0  0.093802  0  0.94843  0  0  0.101672  0  1.009995  0  0  0.104686  0  1.007396  0  0.116915  0  0.120604  0.099393  0  1.012012  0
H  H31  1  0.64684444  0.29514965  0.03927141  1  0  0.093754  0  0.94857  0  0  0.101689  0  1.010063  0  0  0.104705  0  1.007462  0  0.116909  0  0.120621  0.099408  0  1.01208  0
H  H32  1  0.72844133  0.23355253  0.84244242  1  0  0.095872  0  0.932838  0  0  0.105657  0  0.990403  0  0  0.108889  0  0.987371  0  0.120088  0  0.124167  0.103218  0  0.992695  0
H  H33  1  0.27155897  0.76644787  0.34244242  1  0  0.095887  0  0.932817  0  0  0.105671  0  0.990384  0  0  0.108903  0  0.987354  0  0.120051  0  0.124177  0.103233  0  0.992676  0
H  H34  1  0.76644859  0.72844361  0.59244208  1  0  0.095901  0  0.932815  0  0  0.105684  0  0.990382  0  0  0.108917  0  0.987352  0  0.1201  0  0.124184  0.103246  0  0.992673  0
H  H35  1  0.23355305  0.27155545  0.09244173  1  0  0.095877  0  0.932838  0  0  0.105661  0  0.990406  0  0  0.108894  0  0.987375  0  0.120099  0  0.124174  0.103222  0  0.992697  0
H  H36  1  0.34683369  0.56004818  0.68275784  1  0  0.081061  0  0.921814  0  0  0.092718  0  0.979797  0  0  0.095253  0  0.977527  0  0.092581  0  0.12041  0.090788  0  0.981585  0
H  H37  1  0.65316526  0.43995357  0.18275818  1  0  0.081085  0  0.921785  0  0  0.09277  0  0.979746  0  0  0.095306  0  0.977473  0  0.092419  0  0.120442  0.090836  0  0.981534  0
H  H38  1  0.43995439  0.34683361  0.43275818  1  0  0.081091  0  0.921779  0  0  0.092775  0  0.979737  0  0  0.095311  0  0.977465  0  0.092422  0  0.120431  0.09084  0  0.981526  0
H  H39  1  0.56004590  0.65316679  0.93275853  1  0  0.08106  0  0.921855  0  0  0.09271  0  0.979842  0  0  0.095243  0  0.977574  0  0.092429  0  0.120417  0.090778  0  0.981631  0
H  H40  1  0.24510387  0.60782925  0.88725275  1  0  0.103951  0  0.953664  0  0  0.114189  0  1.014784  0  0  0.116786  0  1.014877  0  0.08098  0  0.110697  0.112354  0  1.014846  0
H  H41  1  0.75489912  0.39216846  0.38725343  1  0  0.103989  0  0.953674  0  0  0.114231  0  1.014781  0  0  0.116827  0  1.014875  0  0.08099  0  0.110729  0.112393  0  1.014841  0
H  H42  1  0.39217024  0.24510056  0.63725378  1  0  0.103967  0  0.953649  0  0  0.114234  0  1.014729  0  0  0.116831  0  1.014823  0  0.080988  0  0.110723  0.112396  0  1.01479  0
H  H43  1  0.60783140  0.75489849  0.13725378  1  0  0.103991  0  0.953635  0  0  0.114244  0  1.014731  0  0  0.116841  0  1.014824  0  0.080975  0  0.110714  0.112406  0  1.014791  0
H  H44  1  0.10273154  0.98094225  0.89811428  1  0  0.130544  0  0.983778  0  0  0.137912  0  1.046567  0  0  0.141739  0  1.045576  0  0.174023  0  0.100416  0.135222  0  1.047324  0
H  H45  1  0.89726876  0.01905546  0.39811325  1  0  0.13055  0  0.983783  0  0  0.137908  0  1.046579  0  0  0.141733  0  1.045587  0  0.173488  0  0.100421  0.135221  0  1.047339  0
H  H46  1  0.01905021  0.10273071  0.64811394  1  0  0.13061  0  0.983712  0  0  0.137955  0  1.046514  0  0  0.141781  0  1.045523  0  0.174045  0  0.100437  0.135265  0  1.047271  0
H  H47  1  0.98095008  0.89726969  0.14811462  1  0  0.130615  0  0.983694  0  0  0.137962  0  1.046502  0  0  0.14179  0  1.045513  0  0.174027  0  0.100435  0.135272  0  1.04726  0
H  H48  1  0.01340980  0.50672935  0.94251692  1  0  0.080203  0  0.930516  0  0  0.091108  0  0.990168  0  0  0.093689  0  0.98748  0  0.134456  0  0.121874  0.089153  0  0.992266  0
H  H49  1  0.98659184  0.49326970  0.44251726  1  0  0.080181  0  0.930492  0  0  0.091091  0  0.990151  0  0  0.093671  0  0.987464  0  0.134437  0  0.12187  0.089135  0  0.99225  0
H  H50  1  0.49327094  0.01340700  0.69251726  1  0  0.080201  0  0.930509  0  0  0.091103  0  0.990171  0  0  0.093684  0  0.987481  0  0.134442  0  0.121864  0.089147  0  0.992269  0
H  H51  1  0.50672935  0.98659206  0.19251726  1  0  0.080203  0  0.930508  0  0  0.091108  0  0.990161  0  0  0.093688  0  0.987474  0  0.134446  0  0.121871  0.089152  0  0.99226  0
C  C52  1  0.03891313  0.87129001  0.72473105  1  0  0.67064  0  3.952287  0  0  0.62669  0  4.242192  0  0  0.661856  0  4.233682  0  1.547632  0  0.188797  0.602824  0  4.2471  0
C  C53  1  0.96108446  0.12871040  0.22473003  1  0  0.670618  0  3.952229  0  0  0.626614  0  4.242225  0  0  0.661767  0  4.233737  0  1.547304  0  0.188724  0.602747  0  4.247133  0
C  C54  1  0.12871008  0.03890877  0.47473071  1  0  0.6705  0  3.952247  0  0  0.626617  0  4.242114  0  0  0.661781  0  4.233605  0  1.547632  0  0.188726  0.602752  0  4.247021  0
C  C55  1  0.87129022  0.96108893  0.97473139  1  0  0.670441  0  3.952482  0  0  0.626577  0  4.24233  0  0  0.661744  0  4.233821  0  1.5476  0  0.188744  0.602711  0  4.247238  0
C  C56  1  0.15663805  0.95667168  0.75951234  1  0  -0.212955  0  3.65653  0  0  -0.227993  0  3.912733  0  0  -0.238541  0  3.930254  0  -0.042436  0  -0.093262  -0.221056  0  3.900812  0
C  C57  1  0.84335954  0.04332737  0.25951131  1  0  -0.212959  0  3.656506  0  0  -0.227937  0  3.912721  0  0  -0.23848  0  3.930246  0  -0.042001  0  -0.093239  -0.221001  0  3.900802  0
C  C58  1  0.04332772  0.15663545  0.50951165  1  0  -0.212869  0  3.656495  0  0  -0.227907  0  3.91268  0  0  -0.238454  0  3.930201  0  -0.042009  0  -0.093219  -0.22097  0  3.900758  0
C  C59  1  0.95666988  0.84336630  0.00951200  1  0  -0.212888  0  3.656563  0  0  -0.22792  0  3.912757  0  0  -0.238468  0  3.930278  0  -0.042006  0  -0.093219  -0.220983  0  3.900836  0
C  C60  1  0.23399316  0.50487308  0.74930285  1  0  -0.144023  0  3.665298  0  0  -0.160875  0  3.907494  0  0  -0.169194  0  3.929438  0  0.014563  0  -0.073901  -0.155616  0  3.893018  0
C  C61  1  0.76600983  0.49512597  0.24930319  1  0  -0.14407  0  3.66519  0  0  -0.16092  0  3.907396  0  0  -0.169238  0  3.929337  0  0.014619  0  -0.073906  -0.155661  0  3.89292  0
C  C62  1  0.49512588  0.23399129  0.49930353  1  0  -0.143999  0  3.665399  0  0  -0.160837  0  3.907562  0  0  -0.169154  0  3.929504  0  0.014607  0  -0.073873  -0.155578  0  3.893084  0
C  C63  1  0.50487441  0.76600641  0.99930319  1  0  -0.144073  0  3.665509  0  0  -0.160931  0  3.907688  0  0  -0.169248  0  3.92963  0  0.014571  0  -0.07393  -0.155672  0  3.893211  0
C  C64  1  0.35779994  0.11584881  0.91509945  1  0  0.664861  0  3.951534  0  0  0.623674  0  4.236417  0  0  0.65835  0  4.228724  0  1.522825  0  0.18628  0.60018  0  4.24069  0
C  C65  1  0.64220170  0.88415295  0.41509876  1  0  0.664683  0  3.951747  0  0  0.623508  0  4.236605  0  0  0.658185  0  4.228915  0  1.522798  0  0.186215  0.600015  0  4.240877  0
C  C66  1  0.88415056  0.35780248  0.66509842  1  0  0.66499  0  3.951264  0  0  0.62377  0  4.23616  0  0  0.658447  0  4.228467  0  1.522453  0  0.186355  0.600277  0  4.240432  0
C  C67  1  0.11585243  0.64219927  0.16509842  1  0  0.665085  0  3.951199  0  0  0.623859  0  4.236112  0  0  0.658537  0  4.228418  0  1.522852  0  0.186363  0.600366  0  4.240385  0
C  C68  1  0.44001379  0.55682434  0.81116055  1  0  -0.149232  0  3.704327  0  0  -0.169044  0  3.953038  0  0  -0.176669  0  3.974645  0  0.07787  0  -0.075789  -0.164157  0  3.93856  0
C  C69  1  0.55998515  0.44317876  0.31116055  1  0  -0.14929  0  3.704353  0  0  -0.169115  0  3.95307  0  0  -0.17674  0  3.974679  0  0.077805  0  -0.075838  -0.164229  0  3.938593  0
C  C70  1  0.44317825  0.44001298  0.56116123  1  0  -0.149258  0  3.704323  0  0  -0.169101  0  3.953035  0  0  -0.176732  0  3.974649  0  0.077864  0  -0.075817  -0.164216  0  3.93856  0
C  C71  1  0.55682204  0.55998473  0.06116089  1  0  -0.14923  0  3.70433  0  0  -0.169056  0  3.953041  0  0  -0.176684  0  3.974654  0  0.077855  0  -0.075802  -0.16417  0  3.938564  0
C  C72  1  0.12216380  0.46681482  0.82975702  1  0  0.102582  0  3.733337  0  0  0.113003  0  3.96519  0  0  0.117018  0  3.986804  0  -0.050519  0  0.021167  0.110452  0  3.950533  0
C  C73  1  0.87783649  0.53318424  0.32975736  1  0  0.102571  0  3.733377  0  0  0.112932  0  3.965303  0  0  0.116948  0  3.986918  0  -0.050638  0  0.02111  0.110381  0  3.950646  0
C  C74  1  0.53318445  0.12216283  0.57975736  1  0  0.102596  0  3.733351  0  0  0.11296  0  3.965268  0  0  0.116977  0  3.986882  0  -0.050525  0  0.021143  0.110409  0  3.95061  0
C  C75  1  0.46681585  0.87783623  0.07975736  1  0  0.102626  0  3.73331  0  0  0.112997  0  3.965227  0  0  0.117014  0  3.986841  0  -0.050583  0  0.021139  0.110446  0  3.950569  0
C  C76  1  0.25467825  0.02793180  0.83731529  1  0  -0.02398  0  3.795596  0  0  -0.042931  0  4.051398  0  0  -0.041493  0  4.072159  0  -0.086491  0  -0.085508  -0.043611  0  4.037042  0
C  C77  1  0.74532204  0.97206590  0.33731461  1  0  -0.024065  0  3.795633  0  0  -0.042991  0  4.051417  0  0  -0.04156  0  4.072181  0  -0.08647  0  -0.085513  -0.04367  0  4.037062  0
C  C78  1  0.97206827  0.25467621  0.58731461  1  0  -0.023942  0  3.795688  0  0  -0.042909  0  4.05148  0  0  -0.04147  0  4.072245  0  -0.086509  0  -0.085505  -0.043589  0  4.037123  0
C  C79  1  0.02793203  0.74532554  0.08731495  1  0  -0.024082  0  3.795653  0  0  -0.043039  0  4.051442  0  0  -0.041604  0  4.072209  0  -0.086492  0  -0.085576  -0.043718  0  4.037086  0
C  C80  1  0.96949107  0.36608752  0.81706001  1  0  -0.149196  0  3.670344  0  0  -0.16657  0  3.915386  0  0  -0.174426  0  3.936802  0  0.038187  0  -0.070704  -0.161525  0  3.901094  0
C  C81  1  0.03050787  0.63391153  0.31706035  1  0  -0.149203  0  3.670323  0  0  -0.166538  0  3.915395  0  0  -0.174388  0  3.936802  0  0.038256  0  -0.070694  -0.161493  0  3.901103  0
C  C82  1  0.63391254  0.96949007  0.56706001  1  0  -0.149216  0  3.6703  0  0  -0.166577  0  3.915371  0  0  -0.174426  0  3.936776  0  0.038182  0  -0.07072  -0.161534  0  3.901084  0
C  C83  1  0.36608910  0.03050898  0.06705967  1  0  -0.149218  0  3.670321  0  0  -0.166585  0  3.915396  0  0  -0.174439  0  3.936809  0  0.038247  0  -0.070715  -0.161541  0  3.901106  0
C  C84  1  0.26579166  0.50950633  0.79654501  1  0  0.10163  0  3.739909  0  0  0.112091  0  3.971806  0  0  0.115889  0  3.993903  0  -0.098226  0  0.020324  0.109693  0  3.956813  0
C  C85  1  0.73420863  0.49049272  0.29654501  1  0  0.101713  0  3.739826  0  0  0.112186  0  3.971741  0  0  0.115985  0  3.993838  0  -0.098234  0  0.020371  0.109788  0  3.956751  0
C  C86  1  0.49049124  0.26578953  0.54654535  1  0  0.101665  0  3.739898  0  0  0.112146  0  3.971807  0  0  0.115943  0  3.993907  0  -0.098253  0  0.02033  0.109748  0  3.956814  0
C  C87  1  0.50950905  0.73420817  0.04654535  1  0  0.101668  0  3.739883  0  0  0.112146  0  3.971795  0  0  0.115943  0  3.993894  0  -0.09818  0  0.02033  0.109749  0  3.956802  0
C  C88  1  0.12820247  0.95308469  0.80512576  1  0  -0.020207  0  3.778112  0  0  -0.039375  0  4.032697  0  0  -0.037262  0  4.052636  0  -0.049668  0  -0.080788  -0.040555  0  4.018881  0
C  C89  1  0.87179648  0.04691301  0.30512474  1  0  -0.020225  0  3.778169  0  0  -0.039384  0  4.032721  0  0  -0.037272  0  4.052663  0  -0.049584  0  -0.080807  -0.040564  0  4.018904  0
C  C90  1  0.04691473  0.12820144  0.55512508  1  0  -0.020199  0  3.778234  0  0  -0.039354  0  4.0328  0  0  -0.037241  0  4.05274  0  -0.049666  0  -0.080772  -0.040533  0  4.018982  0
C  C91  1  0.95308421  0.87180031  0.05512542  1  0  -0.020246  0  3.77818  0  0  -0.039379  0  4.032724  0  0  -0.037264  0  4.052662  0  -0.049675  0  -0.080787  -0.040558  0  4.018907  0
C  C92  1  0.56943398  0.60549507  0.77928508  1  0  0.131454  0  3.695599  0  0  0.102236  0  3.940021  0  0  0.10906  0  3.958098  0  0.471073  0  0.049315  0.097833  0  3.927798  0
C  C93  1  0.43056496  0.39450533  0.27928508  1  0  0.131454  0  3.69565  0  0  0.10223  0  3.940022  0  0  0.109055  0  3.958101  0  0.471154  0  0.049372  0.097832  0  3.927795  0
C  C94  1  0.39450713  0.56943348  0.52928542  1  0  0.131408  0  3.695523  0  0  0.102285  0  3.93989  0  0  0.10911  0  3.957967  0  0.47122  0  0.049365  0.097875  0  3.927674  0
C  C95  1  0.60549181  0.43056557  0.02928542  1  0  0.131387  0  3.695686  0  0  0.102211  0  3.940057  0  0  0.109035  0  3.958135  0  0.471194  0  0.049339  0.097803  0  3.927839  0
C  C96  1  0.84584764  0.31639078  0.85034892  1  0  0.136812  0  3.675338  0  0  0.106139  0  3.922991  0  0  0.112779  0  3.94126  0  0.405363  0  0.054233  0.101883  0  3.910608  0
C  C97  1  0.15415265  0.68360692  0.35034926  1  0  0.136791  0  3.675377  0  0  0.106122  0  3.923017  0  0  0.112761  0  3.941289  0  0.405375  0  0.054238  0.101867  0  3.910634  0
C  C98  1  0.68360833  0.84584898  0.60034892  1  0  0.136755  0  3.675412  0  0  0.106063  0  3.923053  0  0  0.112701  0  3.941326  0  0.405349  0  0.054222  0.101807  0  3.91067  0
C  C99  1  0.31639196  0.15415142  0.10034892  1  0  0.136823  0  3.675348  0  0  0.106155  0  3.923001  0  0  0.112792  0  3.941273  0  0.405373  0  0.054247  0.101899  0  3.910618  0
C  C100  1  0.37084929  0.55550133  0.71951370  1  0  0.139728  0  3.695744  0  0  0.106925  0  3.948064  0  0  0.11398  0  3.966403  0  0.480371  0  0.053235  0.102356  0  3.935641  0
C  C101  1  0.62915371  0.44449772  0.21951405  1  0  0.139817  0  3.695599  0  0  0.106957  0  3.947926  0  0  0.114012  0  3.966266  0  0.480476  0  0.053244  0.102393  0  3.935497  0
C  C102  1  0.44449858  0.37084767  0.46951405  1  0  0.139725  0  3.695637  0  0  0.106881  0  3.947969  0  0  0.113936  0  3.966308  0  0.480468  0  0.053237  0.102319  0  3.935538  0
C  C103  1  0.55550172  0.62915138  0.96951405  1  0  0.139811  0  3.695744  0  0  0.107011  0  3.948067  0  0  0.114067  0  3.966403  0  0.48045  0  0.053298  0.102444  0  3.935641  0
C  C104  1  0.13532790  0.52189946  0.87552696  1  0  -0.137072  0  3.681542  0  0  -0.156355  0  3.929374  0  0  -0.163891  0  3.950564  0  0.05712  0  -0.070799  -0.151592  0  3.915331  0
C  C105  1  0.86467374  0.47809824  0.37552662  1  0  -0.137206  0  3.681632  0  0  -0.156454  0  3.929464  0  0  -0.16399  0  3.950654  0  0.057193  0  -0.070822  -0.151685  0  3.915418  0
C  C106  1  0.47809936  0.13532547  0.62552696  1  0  -0.13715  0  3.681596  0  0  -0.15643  0  3.929431  0  0  -0.163966  0  3.950621  0  0.057122  0  -0.070826  -0.151661  0  3.915384  0
C  C107  1  0.52190228  0.86467493  0.12552696  1  0  -0.137213  0  3.681647  0  0  -0.156483  0  3.929473  0  0  -0.16402  0  3.950663  0  0.057135  0  -0.070823  -0.151714  0  3.915427  0
C  C108  1  0.22645597  0.03455903  0.88294409  1  0  -0.235445  0  3.647143  0  0  -0.248445  0  3.895313  0  0  -0.260151  0  3.914305  0  -0.113876  0  -0.101325  -0.24067  0  3.882351  0
C  C109  1  0.77354433  0.96543868  0.38294375  1  0  -0.235382  0  3.647212  0  0  -0.248371  0  3.895365  0  0  -0.260076  0  3.91436  0  -0.113336  0  -0.101319  -0.240603  0  3.882407  0
C  C110  1  0.96543559  0.22645551  0.63294341  1  0  -0.235506  0  3.647218  0  0  -0.248456  0  3.895368  0  0  -0.260162  0  3.914362  0  -0.113492  0  -0.101304  -0.24068  0  3.882404  0
C  C111  1  0.03456470  0.77354625  0.13294375  1  0  -0.235469  0  3.647075  0  0  -0.248435  0  3.895231  0  0  -0.260145  0  3.914227  0  -0.113877  0  -0.101278  -0.240659  0  3.882267  0
C  C112  1  0.00522460  0.46768963  0.90670016  1  0  0.149994  0  3.695774  0  0  0.115538  0  3.948935  0  0  0.123382  0  3.96602  0  0.427598  0  0.058126  0.110358  0  3.937484  0
C  C113  1  0.99477704  0.53230808  0.40670050  1  0  0.150019  0  3.695793  0  0  0.115544  0  3.948971  0  0  0.123388  0  3.966056  0  0.427555  0  0.058091  0.110364  0  3.937518  0
C  C114  1  0.53231098  0.00522321  0.65670050  1  0  0.149949  0  3.695808  0  0  0.115467  0  3.948968  0  0  0.123311  0  3.966055  0  0.427596  0  0.05809  0.110287  0  3.937515  0
C  C115  1  0.46769066  0.99477720  0.15670016  1  0  0.149985  0  3.695884  0  0  0.115527  0  3.94904  0  0  0.123371  0  3.966125  0  0.427595  0  0.058099  0.110346  0  3.937588  0
N  N116  1  0.53544574  0.60726494  0.73398777  1  0  -0.326057  0  3.304322  0  0  -0.242587  0  3.583499  0  0  -0.261333  0  3.597305  0  -1.279828  0  -0.326764  -0.229997  0  3.574061  0
N  N117  1  0.46455455  0.39273951  0.23398777  1  0  -0.326192  0  3.304401  0  0  -0.242647  0  3.583513  0  0  -0.261395  0  3.597323  0  -1.279798  0  -0.326825  -0.230055  0  3.574071  0
N  N118  1  0.39273995  0.53544281  0.48398811  1  0  -0.326064  0  3.304322  0  0  -0.242568  0  3.583434  0  0  -0.261313  0  3.597238  0  -1.279802  0  -0.326789  -0.229977  0  3.573996  0
N  N119  1  0.60726034  0.46455489  0.98398811  1  0  -0.32601  0  3.304287  0  0  -0.242533  0  3.583414  0  0  -0.261277  0  3.597218  0  -1.27981  0  -0.326784  -0.229943  0  3.573977  0
N  N120  1  0.86398523  0.36382355  0.89465689  1  0  -0.328572  0  3.294238  0  0  -0.243621  0  3.573316  0  0  -0.262766  0  3.587542  0  -1.250341  0  -0.327226  -0.230754  0  3.563618  0
N  N121  1  0.13601506  0.63617415  0.39465723  1  0  -0.32853  0  3.294269  0  0  -0.243577  0  3.573354  0  0  -0.262723  0  3.587583  0  -1.250307  0  -0.327202  -0.23071  0  3.563655  0
N  N122  1  0.63617789  0.86398508  0.64465689  1  0  -0.328499  0  3.294286  0  0  -0.243486  0  3.573295  0  0  -0.262633  0  3.587526  0  -1.250355  0  -0.327196  -0.23062  0  3.563597  0
N  N123  1  0.36382376  0.13601398  0.14465689  1  0  -0.328503  0  3.294261  0  0  -0.243549  0  3.573333  0  0  -0.262695  0  3.587561  0  -1.2503  0  -0.327196  -0.230681  0  3.563634  0
O  O124  1  0.09303430  0.86000928  0.68421263  1  0  -0.627321  0  1.868365  0  0  -0.583624  0  2.082826  0  0  -0.606368  0  2.073357  0  -1.168862  0  -0.333916  -0.567511  0  2.088694  0
O  O125  1  0.90696059  0.13998842  0.18421195  1  0  -0.627293  0  1.868278  0  0  -0.583575  0  2.082774  0  0  -0.606317  0  2.073315  0  -1.168968  0  -0.333877  -0.567462  0  2.088641  0
O  O126  1  0.13999089  0.09302951  0.43421229  1  0  -0.627327  0  1.868356  0  0  -0.583615  0  2.082766  0  0  -0.606362  0  2.073307  0  -1.168851  0  -0.333896  -0.567503  0  2.088635  0
O  O127  1  0.86000940  0.90697089  0.93421263  1  0  -0.627293  0  1.86852  0  0  -0.583586  0  2.082927  0  0  -0.606332  0  2.073463  0  -1.168816  0  -0.3339  -0.567472  0  2.088794  0
O  O128  1  0.50328948  0.18536241  0.89710512  1  0  -0.674273  0  2.062244  0  0  -0.59986  0  2.339433  0  0  -0.629746  0  2.322971  0  -1.176739  0  -0.346054  -0.578739  0  2.349792  0
O  O129  1  0.49670946  0.81464069  0.39710580  1  0  -0.674267  0  2.062248  0  0  -0.599871  0  2.339441  0  0  -0.629754  0  2.322974  0  -1.176697  0  -0.346092  -0.57875  0  2.349802  0
O  O130  1  0.81464045  0.50329356  0.64710409  1  0  -0.674367  0  2.062216  0  0  -0.59994  0  2.339423  0  0  -0.629821  0  2.322949  0  -1.17683  0  -0.346142  -0.57882  0  2.349784  0
O  O131  1  0.18535714  0.49670684  0.14710409  1  0  -0.674363  0  2.062189  0  0  -0.599927  0  2.339394  0  0  -0.629807  0  2.322915  0  -1.176844  0  -0.346103  -0.578806  0  2.349755  0
O  O132  1  0.32629845  0.11363748  0.95729649  1  0  -0.622358  0  1.897556  0  0  -0.576784  0  2.112867  0  0  -0.598992  0  2.102999  0  -1.168379  0  -0.330897  -0.561016  0  2.118964  0
O  O133  1  0.67370454  0.88636832  0.45729581  1  0  -0.622204  0  1.897587  0  0  -0.576622  0  2.112881  0  0  -0.598828  0  2.103007  0  -1.168354  0  -0.330785  -0.560852  0  2.118974  0
O  O134  1  0.88636055  0.32630124  0.70729547  1  0  -0.622421  0  1.897358  0  0  -0.576837  0  2.112687  0  0  -0.599045  0  2.102817  0  -1.168301  0  -0.330935  -0.56107  0  2.118784  0
O  O135  1  0.11364649  0.67370186  0.20729547  1  0  -0.622454  0  1.897373  0  0  -0.576855  0  2.11269  0  0  -0.599059  0  2.102811  0  -1.168298  0  -0.330932  -0.561087  0  2.118787  0
O  O136  1  0.88549384  0.80613290  0.73925261  1  0  -0.667916  0  2.033511  0  0  -0.591282  0  2.305279  0  0  -0.621298  0  2.288771  0  -1.171637  0  -0.343914  -0.570072  0  2.31579  0
O  O137  1  0.11450241  0.19386885  0.23925193  1  0  -0.667915  0  2.033479  0  0  -0.591266  0  2.305253  0  0  -0.621279  0  2.288753  0  -1.171697  0  -0.343892  -0.570056  0  2.315762  0
O  O138  1  0.19386365  0.88549081  0.48925296  1  0  -0.667748  0  2.033298  0  0  -0.591274  0  2.305153  0  0  -0.621288  0  2.288646  0  -1.17169  0  -0.343918  -0.570067  0  2.315667  0
O  O139  1  0.80613529  0.11451094  0.98925261  1  0  -0.667698  0  2.033353  0  0  -0.591233  0  2.305205  0  0  -0.621249  0  2.288697  0  -1.171674  0  -0.343911  -0.570025  0  2.315718  0
