# generated using pymatgen
data_CuH3C5SIN3
_symmetry_space_group_name_H-M   'P 1'
_cell_length_a   7.44356093
_cell_length_b   10.38205764
_cell_length_c   11.12079262
_cell_angle_alpha   106.64078555
_cell_angle_beta   89.99988117
_cell_angle_gamma   89.99715049
_symmetry_Int_Tables_number   1
_chemical_formula_structural   CuH3C5SIN3
_chemical_formula_sum   'Cu4 H12 C20 S4 I4 N12'
_cell_volume   823.41611566
_cell_formula_units_Z   4
loop_
 _symmetry_equiv_pos_site_id
 _symmetry_equiv_pos_as_xyz
  1  'x, y, z'
loop_
 _atom_site_type_symbol
 _atom_site_label
 _atom_site_symmetry_multiplicity
 _atom_site_fract_x
 _atom_site_fract_y
 _atom_site_fract_z
 _atom_site_occupancy
 _atom_site_hle17_bader_spin_density
 _atom_site_hle17_ddec_charge
 _atom_site_hle17_ddec_spin_density
 _atom_site_hle17_ddec_sum_bond_order
 _atom_site_hle17_magmom
 _atom_site_hse06_10hf_bader_spin_density
 _atom_site_hse06_10hf_ddec_charge
 _atom_site_hse06_10hf_ddec_spin_density
 _atom_site_hse06_10hf_ddec_sum_bond_order
 _atom_site_hse06_10hf_magmom
 _atom_site_hse06_bader_spin_density
 _atom_site_hse06_ddec_charge
 _atom_site_hse06_ddec_spin_density
 _atom_site_hse06_ddec_sum_bond_order
 _atom_site_hse06_magmom
 _atom_site_pbe_bader_spin_density
 _atom_site_pbe_cm5_charge
 _atom_site_pbe_ddec_charge
 _atom_site_pbe_ddec_spin_density
 _atom_site_pbe_ddec_sum_bond_order
 _atom_site_pbe_magmom
Cu  Cu0  1  0.34346474  0.04847009  0.56212273  1  0  0.40035  0  2.200668  0  0  0.313513  0  2.703096  0  0  0.306774  0  2.662247  0  0  0.48158  0.320449  0  2.730159  0
Cu  Cu1  1  0.84348891  0.95152454  0.93788114  1  0  0.400462  0  2.200568  0  0  0.313644  0  2.702971  0  0  0.306869  0  2.662161  0  0  0.481713  0.320622  0  2.730157  0
Cu  Cu2  1  0.65652140  0.95152507  0.43788412  1  0  0.400439  0  2.20048  0  0  0.313588  0  2.702906  0  0  0.306813  0  2.662083  0  0  0.481658  0.320544  0  2.730033  0
Cu  Cu3  1  0.15650797  0.04847648  0.06211552  1  0  0.400546  0  2.200574  0  0  0.313786  0  2.702983  0  0  0.307034  0  2.662199  0  0  0.481737  0.320754  0  2.730182  0
H  H4  1  0.49495155  0.24107336  0.43788519  1  0  0.093963  0  0.947074  0  0  0.103258  0  1.012402  0  0  0.107038  0  1.008597  0  0  0.108434  0.100464  0  1.015379  0
H  H5  1  0.99495547  0.75891212  0.06211872  1  0  0.093998  0  0.946967  0  0  0.103281  0  1.012295  0  0  0.107045  0  1.008507  0  0  0.108433  0.100487  0  1.015278  0
H  H6  1  0.50505205  0.75890942  0.56209601  1  0  0.093995  0  0.947053  0  0  0.10326  0  1.012413  0  0  0.107018  0  1.008632  0  0  0.108394  0.100466  0  1.015387  0
H  H7  1  0.00504545  0.24109710  0.93789084  1  0  0.093992  0  0.947039  0  0  0.103263  0  1.012389  0  0  0.10702  0  1.008606  0  0  0.108436  0.100481  0  1.015362  0
H  H8  1  0.85249785  0.32692098  0.43492696  1  0  0.085015  0  0.924494  0  0  0.09163  0  0.99019  0  0  0.09448  0  0.988487  0  0  0.111986  0.089584  0  0.9917  0
H  H9  1  0.35249849  0.67309242  0.06503040  1  0  0.084735  0  0.924524  0  0  0.091493  0  0.990075  0  0  0.094338  0  0.98838  0  0  0.111924  0.089449  0  0.991578  0
H  H10  1  0.14751247  0.67309222  0.56508092  1  0  0.085051  0  0.924439  0  0  0.091688  0  0.990107  0  0  0.094535  0  0.988407  0  0  0.112004  0.089642  0  0.991612  0
H  H11  1  0.64750646  0.32689839  0.93495196  1  0  0.084845  0  0.924345  0  0  0.091602  0  0.989917  0  0  0.094453  0  0.988211  0  0  0.111951  0.089557  0  0.991422  0
H  H12  1  0.97695597  0.16238111  0.54180640  1  0  0.085896  0  0.973052  0  0  0.089455  0  1.046764  0  0  0.093022  0  1.043379  0  0  0.105341  0.086553  0  1.049816  0
H  H13  1  0.47697071  0.83763502  0.95817127  1  0  0.085928  0  0.972825  0  0  0.089467  0  1.046583  0  0  0.093039  0  1.043194  0  0  0.10529  0.086562  0  1.049645  0
H  H14  1  0.02304495  0.83763623  0.45821153  1  0  0.08595  0  0.972998  0  0  0.089488  0  1.046725  0  0  0.093055  0  1.043341  0  0  0.105372  0.08659  0  1.049776  0
H  H15  1  0.52303155  0.16235476  0.04180902  1  0  0.085927  0  0.972922  0  0  0.089473  0  1.046658  0  0  0.093046  0  1.043267  0  0  0.105308  0.086578  0  1.049714  0
C  C16  1  0.35132334  0.26166932  0.43917777  1  0  0.044838  0  3.694793  0  0  0.008905  0  3.948878  0  0  0.012265  0  3.96319  0  0  0.034129  0.006262  0  3.939498  0
C  C17  1  0.85132198  0.73832363  0.06081933  1  0  0.044833  0  3.695168  0  0  0.008981  0  3.94924  0  0  0.012358  0  3.963532  0  0  0.034166  0.006322  0  3.939887  0
C  C18  1  0.64868161  0.73831959  0.56081220  1  0  0.044894  0  3.695044  0  0  0.008966  0  3.949139  0  0  0.012333  0  3.963463  0  0  0.034159  0.006317  0  3.939762  0
C  C19  1  0.14867491  0.26168155  0.93918830  1  0  0.044899  0  3.695124  0  0  0.009014  0  3.949258  0  0  0.012402  0  3.963561  0  0  0.034146  0.006347  0  3.939906  0
C  C20  1  0.27944062  0.35405559  0.38230893  1  0  0.11375  0  3.699565  0  0  0.126151  0  3.974935  0  0  0.131164  0  3.99316  0  0  0.072831  0.121871  0  3.963489  0
C  C21  1  0.77943883  0.64594323  0.11769339  1  0  0.113588  0  3.699566  0  0  0.125998  0  3.974875  0  0  0.131022  0  3.993094  0  0  0.072716  0.121729  0  3.963437  0
C  C22  1  0.72055896  0.64593833  0.61768142  1  0  0.113443  0  3.699644  0  0  0.125886  0  3.974976  0  0  0.130906  0  3.993199  0  0  0.072716  0.121612  0  3.963533  0
C  C23  1  0.22056075  0.35406701  0.88231732  1  0  0.113454  0  3.699518  0  0  0.125927  0  3.974787  0  0  0.130943  0  3.992999  0  0  0.072737  0.121654  0  3.963351  0
C  C24  1  0.99669697  0.30809521  0.43633895  1  0  0.101371  0  3.685073  0  0  0.077121  0  3.944414  0  0  0.078742  0  3.960903  0  0  0.05214  0.075121  0  3.933924  0
C  C25  1  0.49670166  0.69191772  0.06362704  1  0  0.101619  0  3.684797  0  0  0.077305  0  3.944141  0  0  0.078914  0  3.960645  0  0  0.052156  0.075305  0  3.93365  0
C  C26  1  0.00330664  0.69191086  0.56366081  1  0  0.101261  0  3.684992  0  0  0.076989  0  3.944332  0  0  0.078601  0  3.96083  0  0  0.052116  0.074983  0  3.933845  0
C  C27  1  0.50330060  0.30807519  0.93636216  1  0  0.101625  0  3.684539  0  0  0.077296  0  3.943884  0  0  0.078913  0  3.960388  0  0  0.052181  0.075297  0  3.933398  0
C  C28  1  0.06505054  0.21694948  0.49524333  1  0  0.066213  0  3.662286  0  0  0.036228  0  3.91548  0  0  0.040818  0  3.928349  0  0  0.037811  0.033992  0  3.907363  0
C  C29  1  0.56505832  0.78305735  0.00473715  1  0  0.066026  0  3.6615  0  0  0.036046  0  3.91483  0  0  0.040647  0  3.927679  0  0  0.037768  0.033823  0  3.906739  0
C  C30  1  0.93495038  0.78306364  0.50475914  1  0  0.066177  0  3.66234  0  0  0.036234  0  3.915467  0  0  0.040841  0  3.928318  0  0  0.037809  0.034  0  3.907362  0
C  C31  1  0.43493857  0.21693858  0.99525371  1  0  0.065936  0  3.661857  0  0  0.03597  0  3.915198  0  0  0.04056  0  3.928053  0  0  0.037706  0.033727  0  3.907108  0
C  C32  1  0.70191195  0.06537414  0.73031857  1  0  0.297398  0  3.939927  0  0  0.28893  0  4.227178  0  0  0.303743  0  4.245152  0  0  0.143449  0.277833  0  4.216225  0
C  C33  1  0.20191915  0.93462013  0.76969625  1  0  0.297353  0  3.939802  0  0  0.288879  0  4.227059  0  0  0.303692  0  4.24504  0  0  0.143459  0.277773  0  4.216086  0
C  C34  1  0.29809569  0.93463097  0.26968364  1  0  0.297478  0  3.93986  0  0  0.289019  0  4.227107  0  0  0.303831  0  4.245081  0  0  0.143466  0.277921  0  4.216156  0
C  C35  1  0.79806967  0.06537320  0.23032362  1  0  0.297382  0  3.939968  0  0  0.288917  0  4.227203  0  0  0.303731  0  4.245171  0  0  0.143496  0.277819  0  4.21627  0
S  S36  1  0.63988154  0.13597812  0.62257692  1  0  -0.325244  0  2.656613  0  0  -0.301228  0  3.089271  0  0  -0.306822  0  3.067652  0  0  -0.174024  -0.296365  0  3.102155  0
S  S37  1  0.13990812  0.86402049  0.87743373  1  0  -0.325233  0  2.656931  0  0  -0.301215  0  3.089609  0  0  -0.30681  0  3.06799  0  0  -0.174066  -0.296376  0  3.102582  0
S  S38  1  0.36010326  0.86402896  0.37742310  1  0  -0.325157  0  2.656795  0  0  -0.301149  0  3.089467  0  0  -0.30674  0  3.067838  0  0  -0.174011  -0.296312  0  3.102413  0
S  S39  1  0.86007936  0.13597568  0.12257428  1  0  -0.325321  0  2.656557  0  0  -0.301304  0  3.089206  0  0  -0.306899  0  3.067587  0  0  -0.174104  -0.296448  0  3.102165  0
I  I40  1  0.45075685  0.46247063  0.29500058  1  0  0.011495  0  1.478593  0  0  -0.017794  0  1.811519  0  0  -0.02082  0  1.804098  0  0  0.109544  -0.014555  0  1.81533  0
I  I41  1  0.95072072  0.53752986  0.20502345  1  0  0.011605  0  1.478879  0  0  -0.017719  0  1.811853  0  0  -0.020742  0  1.804423  0  0  0.109653  -0.01448  0  1.815656  0
I  I42  1  0.54924810  0.53752536  0.70499390  1  0  0.011579  0  1.478665  0  0  -0.017726  0  1.811578  0  0  -0.020748  0  1.804157  0  0  0.109572  -0.014493  0  1.815385  0
I  I43  1  0.04925736  0.46248355  0.79499977  1  0  0.011611  0  1.478747  0  0  -0.017707  0  1.811662  0  0  -0.020734  0  1.804235  0  0  0.109619  -0.014471  0  1.815465  0
N  N44  1  0.24347536  0.19362980  0.49652792  1  0  -0.229381  0  3.374783  0  0  -0.159827  0  3.662593  0  0  -0.165583  0  3.669726  0  0  -0.347661  -0.156684  0  3.657825  0
N  N45  1  0.74350033  0.80636933  0.00346825  1  0  -0.229268  0  3.374637  0  0  -0.159847  0  3.662559  0  0  -0.165594  0  3.669676  0  0  -0.347564  -0.156715  0  3.657854  0
N  N46  1  0.75653093  0.80636326  0.50347210  1  0  -0.229446  0  3.375062  0  0  -0.159888  0  3.662856  0  0  -0.165641  0  3.669971  0  0  -0.347665  -0.156752  0  3.658123  0
N  N47  1  0.25650194  0.19362772  0.99653099  1  0  -0.229298  0  3.374797  0  0  -0.159898  0  3.662758  0  0  -0.165653  0  3.669895  0  0  -0.34761  -0.156764  0  3.658067  0
N  N48  1  0.10386928  0.37717293  0.38008398  1  0  -0.264273  0  3.126781  0  0  -0.223619  0  3.389207  0  0  -0.230907  0  3.404481  0  0  -0.302018  -0.217492  0  3.378716  0
N  N49  1  0.60386506  0.62283239  0.11989604  1  0  -0.264206  0  3.126238  0  0  -0.223588  0  3.388729  0  0  -0.230879  0  3.404006  0  0  -0.302031  -0.217463  0  3.378243  0
N  N50  1  0.89614105  0.62282705  0.61990972  1  0  -0.264049  0  3.126507  0  0  -0.223406  0  3.388927  0  0  -0.230695  0  3.404202  0  0  -0.301951  -0.217275  0  3.378435  0
N  N51  1  0.39613451  0.37717569  0.88010424  1  0  -0.264175  0  3.126223  0  0  -0.223573  0  3.388708  0  0  -0.230864  0  3.403983  0  0  -0.301986  -0.217445  0  3.378216  0
N  N52  1  0.74785795  0.01622513  0.80886492  1  0  -0.481454  0  3.131926  0  0  -0.432772  0  3.455844  0  0  -0.443942  0  3.458623  0  0  -0.433606  -0.427095  0  3.456023  0
N  N53  1  0.24785256  0.98377127  0.69114318  1  0  -0.481413  0  3.131696  0  0  -0.432739  0  3.455684  0  0  -0.443921  0  3.458489  0  0  -0.433583  -0.42703  0  3.45577  0
N  N54  1  0.25215506  0.98378190  0.19113149  1  0  -0.481623  0  3.131715  0  0  -0.432953  0  3.455638  0  0  -0.444137  0  3.458455  0  0  -0.433643  -0.427267  0  3.455825  0
N  N55  1  0.75214701  0.01622295  0.30886793  1  0  -0.48138  0  3.132085  0  0  -0.432698  0  3.456022  0  0  -0.443873  0  3.458809  0  0  -0.43358  -0.427006  0  3.45617  0
