# generated using pymatgen
data_Dy2H18(CO2)9
_symmetry_space_group_name_H-M   'P 1'
_cell_length_a   10.45105449
_cell_length_b   10.45033322
_cell_length_c   10.70819406
_cell_angle_alpha   101.28212033
_cell_angle_beta   117.94311555
_cell_angle_gamma   108.62952069
_symmetry_Int_Tables_number   1
_chemical_formula_structural   Dy2H18(CO2)9
_chemical_formula_sum   'Dy4 H36 C18 O36'
_cell_volume   891.84831916
_cell_formula_units_Z   2
loop_
 _symmetry_equiv_pos_site_id
 _symmetry_equiv_pos_as_xyz
  1  'x, y, z'
loop_
 _atom_site_type_symbol
 _atom_site_label
 _atom_site_symmetry_multiplicity
 _atom_site_fract_x
 _atom_site_fract_y
 _atom_site_fract_z
 _atom_site_occupancy
 _atom_site_hle17_bader_spin_density
 _atom_site_hle17_ddec_charge
 _atom_site_hle17_ddec_spin_density
 _atom_site_hle17_ddec_sum_bond_order
 _atom_site_hle17_magmom
 _atom_site_hse06_10hf_bader_spin_density
 _atom_site_hse06_10hf_ddec_charge
 _atom_site_hse06_10hf_ddec_spin_density
 _atom_site_hse06_10hf_ddec_sum_bond_order
 _atom_site_hse06_10hf_magmom
 _atom_site_hse06_bader_spin_density
 _atom_site_hse06_ddec_charge
 _atom_site_hse06_ddec_spin_density
 _atom_site_hse06_ddec_sum_bond_order
 _atom_site_hse06_magmom
 _atom_site_pbe_bader_spin_density
 _atom_site_pbe_cm5_charge
 _atom_site_pbe_ddec_charge
 _atom_site_pbe_ddec_spin_density
 _atom_site_pbe_ddec_sum_bond_order
 _atom_site_pbe_magmom
Dy  Dy0  1  0.95042913  0.13509017  0.37956867  1  0  2.305885  0  1.563199  0  0  2.232936  0  1.877685  0  0  2.279265  0  1.838329  0  0  1.503534  2.116591  0  2.060657  0
Dy  Dy1  1  0.25551617  0.57085504  0.12042052  1  0  2.305939  0  1.563399  0  0  2.233028  0  1.877888  0  0  2.279352  0  1.838528  0  0  1.503551  2.116726  0  2.060827  0
Dy  Dy2  1  0.04957151  0.86490955  0.62043219  1  0  2.305911  0  1.563157  0  0  2.232964  0  1.87764  0  0  2.27929  0  1.838282  0  0  1.503555  2.116616  0  2.060614  0
Dy  Dy3  1  0.74448388  0.42914357  0.87957893  1  0  2.305942  0  1.563429  0  0  2.233019  0  1.877922  0  0  2.279342  0  1.83856  0  0  1.503546  2.116733  0  2.060812  0
H  H4  1  0.29443834  0.21648302  0.16646377  1  0  0.158641  0  0.923453  0  0  0.172061  0  0.982199  0  0  0.175721  0  0.979931  0  0  0.123201  0.169024  0  0.984733  0
H  H5  1  0.55004562  0.12801945  0.33348044  1  0  0.158767  0  0.923067  0  0  0.172237  0  0.981784  0  0  0.175907  0  0.979509  0  0  0.123165  0.169186  0  0.984344  0
H  H6  1  0.70556511  0.78352002  0.83353712  1  0  0.158645  0  0.923425  0  0  0.172056  0  0.98219  0  0  0.175712  0  0.979928  0  0  0.123193  0.169022  0  0.984722  0
H  H7  1  0.44995497  0.87197807  0.66652279  1  0  0.158735  0  0.923029  0  0  0.172179  0  0.981766  0  0  0.175849  0  0.979493  0  0  0.12311  0.169135  0  0.984316  0
H  H8  1  0.36957129  0.23702554  0.35968154  1  0  0.144589  0  0.923727  0  0  0.157971  0  0.97873  0  0  0.161326  0  0.976919  0  0  0.114621  0.155153  0  0.980996  0
H  H9  1  0.37735976  0.00988014  0.14027203  1  0  0.144566  0  0.924057  0  0  0.157999  0  0.978942  0  0  0.161356  0  0.977129  0  0  0.114581  0.155175  0  0.981227  0
H  H10  1  0.63043215  0.76297749  0.64031841  1  0  0.144566  0  0.923672  0  0  0.15795  0  0.978686  0  0  0.161305  0  0.976876  0  0  0.114623  0.155132  0  0.980951  0
H  H11  1  0.62264140  0.99011848  0.85973073  1  0  0.144548  0  0.924076  0  0  0.157993  0  0.978916  0  0  0.16135  0  0.9771  0  0  0.114578  0.155174  0  0.981193  0
H  H12  1  0.89244476  0.03496755  0.78711491  1  0  0.163085  0  0.915398  0  0  0.174274  0  0.969396  0  0  0.178247  0  0.967065  0  0  0.123897  0.171492  0  0.971243  0
H  H13  1  0.74783221  0.10529448  0.71284389  1  0  0.163108  0  0.915379  0  0  0.174255  0  0.969425  0  0  0.178229  0  0.967093  0  0  0.123944  0.171478  0  0.97127  0
H  H14  1  0.10755270  0.96503438  0.21288494  1  0  0.163078  0  0.915408  0  0  0.174274  0  0.969402  0  0  0.178246  0  0.967073  0  0  0.123898  0.171494  0  0.971247  0
H  H15  1  0.25216852  0.89470746  0.28715836  1  0  0.163141  0  0.915354  0  0  0.174291  0  0.96939  0  0  0.178262  0  0.967061  0  0  0.123976  0.171512  0  0.971241  0
H  H16  1  0.83050500  0.85709649  0.10668686  1  0  0.424116  0  0.875065  0  0  0.398372  0  0.932696  0  0  0.408475  0  0.917873  0  0  0.29404  0.390394  0  0.944314  0
H  H17  1  0.25047195  0.72386469  0.39335309  1  0  0.424142  0  0.87518  0  0  0.398498  0  0.932539  0  0  0.408591  0  0.91773  0  0  0.294078  0.39053  0  0.944141  0
H  H18  1  0.16949397  0.14290211  0.89331209  1  0  0.424111  0  0.875059  0  0  0.39837  0  0.932696  0  0  0.408471  0  0.917875  0  0  0.294042  0.390394  0  0.944312  0
H  H19  1  0.74952925  0.27613613  0.60664637  1  0  0.424109  0  0.875215  0  0  0.398463  0  0.932588  0  0  0.408557  0  0.917776  0  0  0.294056  0.390489  0  0.944199  0
H  H20  1  0.69278308  0.90301310  0.05064619  1  0  0.423784  0  0.885685  0  0  0.391052  0  0.953388  0  0  0.401816  0  0.937844  0  0  0.290601  0.383139  0  0.964616  0
H  H21  1  0.35239648  0.64216620  0.44939257  1  0  0.423834  0  0.885572  0  0  0.391182  0  0.953171  0  0  0.401941  0  0.937634  0  0  0.290642  0.383276  0  0.964393  0
H  H22  1  0.30721755  0.09698661  0.94935373  1  0  0.4238  0  0.885666  0  0  0.391067  0  0.95337  0  0  0.40183  0  0.937827  0  0  0.290611  0.38316  0  0.964588  0
H  H23  1  0.64760473  0.35783463  0.55060783  1  0  0.423831  0  0.885565  0  0  0.391172  0  0.953178  0  0  0.401932  0  0.937639  0  0  0.290639  0.383266  0  0.964397  0
H  H24  1  0.18240131  0.45801853  0.52186415  1  0  0.441232  0  0.854111  0  0  0.409844  0  0.917085  0  0  0.421008  0  0.90085  0  0  0.301188  0.401506  0  0.929095  0
H  H25  1  0.43619489  0.66060437  0.97821254  1  0  0.44112  0  0.854295  0  0  0.409727  0  0.917256  0  0  0.420889  0  0.901028  0  0  0.30116  0.401397  0  0.929255  0
H  H26  1  0.81759941  0.54198341  0.47813717  1  0  0.441213  0  0.854135  0  0  0.409821  0  0.917114  0  0  0.420985  0  0.900882  0  0  0.301177  0.401481  0  0.92913  0
H  H27  1  0.56380394  0.33938982  0.02178738  1  0  0.441165  0  0.854222  0  0  0.409768  0  0.917192  0  0  0.42093  0  0.900964  0  0  0.301146  0.401434  0  0.929199  0
H  H28  1  0.05477365  0.44638611  0.56593647  1  0  0.447319  0  0.806187  0  0  0.42584  0  0.867273  0  0  0.435278  0  0.854663  0  0  0.325831  0.418401  0  0.875601  0
H  H29  1  0.38044474  0.48887074  0.93403649  1  0  0.447265  0  0.806518  0  0  0.425746  0  0.867669  0  0  0.435184  0  0.854848  0  0  0.325742  0.418312  0  0.875983  0
H  H30  1  0.94522319  0.55361469  0.43405914  1  0  0.4473  0  0.806182  0  0  0.425821  0  0.867268  0  0  0.435259  0  0.854682  0  0  0.325828  0.418383  0  0.875594  0
H  H31  1  0.61955030  0.51112453  0.06595913  1  0  0.447293  0  0.806447  0  0  0.425774  0  0.867603  0  0  0.435214  0  0.8548  0  0  0.32578  0.418338  0  0.875921  0
H  H32  1  0.32582854  0.33612900  0.64129659  1  0  0.431086  0  0.869177  0  0  0.400752  0  0.93269  0  0  0.412175  0  0.915659  0  0  0.297236  0.392004  0  0.945476  0
H  H33  1  0.19484515  0.68456978  0.85876394  1  0  0.430998  0  0.869267  0  0  0.400691  0  0.932748  0  0  0.41211  0  0.91572  0  0  0.297239  0.391972  0  0.945502  0
H  H34  1  0.67417050  0.66387182  0.35870282  1  0  0.431092  0  0.869164  0  0  0.400768  0  0.93266  0  0  0.41219  0  0.91563  0  0  0.297253  0.392021  0  0.945445  0
H  H35  1  0.80515496  0.31543103  0.14123408  1  0  0.43101  0  0.869248  0  0  0.400706  0  0.932728  0  0  0.412125  0  0.915699  0  0  0.297245  0.391986  0  0.945481  0
H  H36  1  0.26319209  0.18709955  0.65790491  1  0  0.435642  0  0.867264  0  0  0.404408  0  0.931414  0  0  0.416144  0  0.914075  0  0  0.299832  0.396036  0  0.943391  0
H  H37  1  0.02919384  0.60528530  0.84210504  1  0  0.435646  0  0.867262  0  0  0.404465  0  0.931344  0  0  0.416202  0  0.914004  0  0  0.299868  0.396091  0  0.943328  0
H  H38  1  0.73680795  0.81289905  0.34209360  1  0  0.435626  0  0.867289  0  0  0.404389  0  0.931443  0  0  0.416124  0  0.914107  0  0  0.29982  0.396017  0  0.943421  0
H  H39  1  0.97080678  0.39471441  0.15789395  1  0  0.435631  0  0.867269  0  0  0.404488  0  0.93131  0  0  0.41623  0  0.913961  0  0  0.299875  0.396113  0  0.943295  0
C  C40  1  0.18686985  0.30553792  0.25889412  1  0  0.817419  0  3.768084  0  0  0.77022  0  4.065656  0  0  0.806175  0  4.053387  0  0  0.243515  0.744406  0  4.070843  0
C  C41  1  0.54666702  0.92797973  0.24109486  1  0  0.81744  0  3.767892  0  0  0.770184  0  4.065584  0  0  0.806137  0  4.053314  0  0  0.243393  0.744371  0  4.070766  0
C  C42  1  0.81313079  0.69446180  0.74110674  1  0  0.817259  0  3.768292  0  0  0.770131  0  4.065769  0  0  0.806086  0  4.053503  0  0  0.243473  0.744314  0  4.070961  0
C  C43  1  0.45333361  0.07201999  0.75890506  1  0  0.817467  0  3.767994  0  0  0.770216  0  4.065629  0  0  0.80617  0  4.053363  0  0  0.243445  0.744396  0  4.070819  0
C  C44  1  0.33538442  0.29154848  0.28093972  1  0  -0.456591  0  3.637865  0  0  -0.498194  0  3.884667  0  0  -0.508673  0  3.884914  0  0  -0.161595  -0.490818  0  3.885239  0
C  C45  1  0.51058609  0.05442747  0.21899566  1  0  -0.456546  0  3.637506  0  0  -0.498318  0  3.884234  0  0  -0.508806  0  3.884481  0  0  -0.161759  -0.490962  0  3.884895  0
C  C46  1  0.66461628  0.70845344  0.71905972  1  0  -0.456514  0  3.637697  0  0  -0.498151  0  3.884532  0  0  -0.508628  0  3.884777  0  0  -0.161591  -0.490775  0  3.885103  0
C  C47  1  0.48941349  0.94557226  0.78100753  1  0  -0.45667  0  3.637793  0  0  -0.498347  0  3.884378  0  0  -0.508836  0  3.88463  0  0  -0.161751  -0.490997  0  3.885029  0
C  C48  1  0.48647403  0.43123974  0.33474444  1  0  0.774473  0  3.785047  0  0  0.718868  0  4.096525  0  0  0.753271  0  4.087176  0  0  0.232621  0.694992  0  4.100179  0
C  C49  1  0.59648795  0.15170542  0.16519509  1  0  0.774103  0  3.785192  0  0  0.71869  0  4.096364  0  0  0.753083  0  4.087026  0  0  0.232611  0.694811  0  4.100003  0
C  C50  1  0.51352669  0.56876220  0.66525688  1  0  0.774594  0  3.784823  0  0  0.71898  0  4.096319  0  0  0.75338  0  4.08697  0  0  0.232651  0.695093  0  4.099989  0
C  C51  1  0.40351112  0.84829542  0.83480714  1  0  0.774312  0  3.785132  0  0  0.718837  0  4.096334  0  0  0.753229  0  4.086996  0  0  0.232621  0.694946  0  4.099989  0
C  C52  1  0.89647345  0.12249589  0.62212068  1  0  0.770241  0  3.814717  0  0  0.722425  0  4.11774  0  0  0.757218  0  4.10737  0  0  0.226666  0.698867  0  4.115836  0
C  C53  1  0.00033333  0.27434403  0.87782923  1  0  0.770462  0  3.814617  0  0  0.722584  0  4.117695  0  0  0.757379  0  4.107324  0  0  0.226754  0.699034  0  4.11578  0
C  C54  1  0.10352394  0.87750382  0.37787871  1  0  0.770307  0  3.81475  0  0  0.7225  0  4.11776  0  0  0.757289  0  4.107392  0  0  0.226693  0.698936  0  4.115861  0
C  C55  1  0.99966628  0.72565789  0.12216878  1  0  0.770363  0  3.814696  0  0  0.722482  0  4.117777  0  0  0.75729  0  4.107391  0  0  0.226669  0.698929  0  4.115867  0
C  C56  1  0.87097676  0.12097778  0.74997580  1  0  -0.43504  0  3.586046  0  0  -0.465848  0  3.813255  0  0  -0.476262  0  3.812374  0  0  -0.15296  -0.459962  0  3.815725  0
C  C57  1  0.12902172  0.87902194  0.25002408  1  0  -0.435071  0  3.586061  0  0  -0.465883  0  3.813246  0  0  -0.476296  0  3.812361  0  0  -0.152976  -0.459992  0  3.815719  0
O  O58  1  0.10108813  0.21701637  0.28784689  1  0  -0.742923  0  2.033094  0  0  -0.702676  0  2.293103  0  0  -0.728347  0  2.279792  0  0  -0.421161  -0.672389  0  2.307956  0
O  O59  1  0.42917764  0.81322370  0.21216106  1  0  -0.743206  0  2.032835  0  0  -0.70295  0  2.292869  0  0  -0.728622  0  2.279541  0  0  -0.421465  -0.672663  0  2.307736  0
O  O60  1  0.89891578  0.78298336  0.71215639  1  0  -0.742897  0  2.033203  0  0  -0.702675  0  2.293187  0  0  -0.728344  0  2.279868  0  0  -0.421155  -0.672387  0  2.308047  0
O  O61  1  0.57082233  0.18677269  0.78783793  1  0  -0.743175  0  2.032893  0  0  -0.702945  0  2.292949  0  0  -0.728616  0  2.279617  0  0  -0.421489  -0.672658  0  2.307813  0
O  O62  1  0.15169181  0.39873343  0.20920594  1  0  -0.73878  0  2.127909  0  0  -0.682404  0  2.361532  0  0  -0.709439  0  2.351923  0  0  -0.368392  -0.65422  0  2.371089  0
O  O63  1  0.68951263  0.94246360  0.29076142  1  0  -0.738541  0  2.128306  0  0  -0.682101  0  2.361949  0  0  -0.709131  0  2.352362  0  0  -0.368147  -0.653905  0  2.371489  0
O  O64  1  0.84830991  0.60126629  0.79079447  1  0  -0.738727  0  2.127954  0  0  -0.682361  0  2.361553  0  0  -0.709385  0  2.351921  0  0  -0.368363  -0.654178  0  2.371108  0
O  O65  1  0.31048741  0.05753500  0.70923709  1  0  -0.73856  0  2.128248  0  0  -0.682142  0  2.361898  0  0  -0.709156  0  2.352272  0  0  -0.36819  -0.653944  0  2.371437  0
O  O66  1  0.62541081  0.44315985  0.43009127  1  0  -0.637032  0  1.978628  0  0  -0.564987  0  2.186084  0  0  -0.591429  0  2.176724  0  0  -0.297552  -0.547435  0  2.193954  0
O  O67  1  0.51303162  0.19525474  0.06980127  1  0  -0.636692  0  1.97848  0  0  -0.564528  0  2.185665  0  0  -0.590964  0  2.17631  0  0  -0.297441  -0.546977  0  2.193531  0
O  O68  1  0.37459060  0.55684542  0.56991379  1  0  -0.637072  0  1.978589  0  0  -0.565049  0  2.186065  0  0  -0.591486  0  2.176703  0  0  -0.297563  -0.547494  0  2.19394  0
O  O69  1  0.48696462  0.80474277  0.93019905  1  0  -0.636723  0  1.978452  0  0  -0.564562  0  2.185664  0  0  -0.590995  0  2.176309  0  0  -0.297413  -0.547004  0  2.193534  0
O  O70  1  0.47154166  0.52897383  0.28219116  1  0  -0.731765  0  2.038871  0  0  -0.680168  0  2.284523  0  0  -0.706336  0  2.273182  0  0  -0.381563  -0.65055  0  2.295101  0
O  O71  1  0.74674978  0.18931871  0.21773038  1  0  -0.731722  0  2.039123  0  0  -0.680282  0  2.284779  0  0  -0.706448  0  2.273452  0  0  -0.381418  -0.650656  0  2.295351  0
O  O72  1  0.52845688  0.47102809  0.71780823  1  0  -0.731845  0  2.038746  0  0  -0.680208  0  2.284377  0  0  -0.706379  0  2.27304  0  0  -0.381541  -0.650584  0  2.294951  0
O  O73  1  0.25324989  0.81068324  0.78227327  1  0  -0.73177  0  2.038989  0  0  -0.6803  0  2.284635  0  0  -0.706467  0  2.273308  0  0  -0.381398  -0.650671  0  2.295212  0
O  O74  1  0.86374089  0.20709087  0.55541888  1  0  -0.688966  0  1.95801  0  0  -0.639563  0  2.18224  0  0  -0.664676  0  2.172992  0  0  -0.337663  -0.614187  0  2.189789  0
O  O75  1  0.15162623  0.30832580  0.94450553  1  0  -0.68914  0  1.957692  0  0  -0.639738  0  2.182003  0  0  -0.664851  0  2.172752  0  0  -0.337901  -0.614363  0  2.189558  0
O  O76  1  0.13625766  0.79291106  0.44458145  1  0  -0.689024  0  1.957922  0  0  -0.639637  0  2.18216  0  0  -0.664746  0  2.172914  0  0  -0.337742  -0.614259  0  2.189711  0
O  O77  1  0.84837273  0.69167280  0.05549343  1  0  -0.689075  0  1.957661  0  0  -0.639655  0  2.181958  0  0  -0.664774  0  2.172699  0  0  -0.337848  -0.61428  0  2.189514  0
O  O78  1  0.95924255  0.04706828  0.58898210  1  0  -0.78447  0  2.161979  0  0  -0.740803  0  2.423551  0  0  -0.76708  0  2.413904  0  0  -0.410807  -0.704476  0  2.429575  0
O  O79  1  0.95804668  0.37024727  0.91098798  1  0  -0.784413  0  2.162233  0  0  -0.740669  0  2.423759  0  0  -0.766958  0  2.414119  0  0  -0.410651  -0.704355  0  2.429785  0
O  O80  1  0.04075427  0.95293033  0.41101776  1  0  -0.784447  0  2.162095  0  0  -0.740763  0  2.423622  0  0  -0.767059  0  2.414017  0  0  -0.410763  -0.704434  0  2.429646  0
O  O81  1  0.04195459  0.62975575  0.08901099  1  0  -0.784345  0  2.162201  0  0  -0.740666  0  2.423809  0  0  -0.766932  0  2.414105  0  0  -0.410624  -0.704355  0  2.429839  0
O  O82  1  0.81531444  0.94667326  0.11629303  1  0  -0.91106  0  1.868958  0  0  -0.880087  0  2.055025  0  0  -0.898665  0  2.024675  0  0  -0.642188  -0.856982  0  2.082024  0
O  O83  1  0.33039993  0.69902324  0.38371767  1  0  -0.91107  0  1.868923  0  0  -0.880225  0  2.054649  0  0  -0.898796  0  2.02431  0  0  -0.642259  -0.85712  0  2.081631  0
O  O84  1  0.18468451  0.05332534  0.88370499  1  0  -0.911069  0  1.86893  0  0  -0.880093  0  2.055003  0  0  -0.898672  0  2.024651  0  0  -0.642195  -0.856992  0  2.081996  0
O  O85  1  0.66960012  0.30097537  0.61628178  1  0  -0.911025  0  1.868909  0  0  -0.880189  0  2.054669  0  0  -0.898756  0  2.024321  0  0  -0.64224  -0.857087  0  2.081662  0
O  O86  1  0.06420388  0.40291090  0.48318281  1  0  -0.891916  0  1.870513  0  0  -0.854303  0  2.06459  0  0  -0.872815  0  2.034071  0  0  -0.62861  -0.831325  0  2.091184  0
O  O87  1  0.41973388  0.58103574  0.01683118  1  0  -0.891818  0  1.870921  0  0  -0.854199  0  2.065205  0  0  -0.872718  0  2.034474  0  0  -0.628599  -0.831229  0  2.091773  0
O  O88  1  0.93579726  0.59708771  0.51681713  1  0  -0.89188  0  1.870507  0  0  -0.854266  0  2.064588  0  0  -0.872781  0  2.034088  0  0  -0.628592  -0.831284  0  2.091179  0
O  O89  1  0.58026435  0.41895733  0.98316734  1  0  -0.891878  0  1.87082  0  0  -0.854261  0  2.065112  0  0  -0.872779  0  2.034398  0  0  -0.628609  -0.831291  0  2.091682  0
O  O90  1  0.22456728  0.25446530  0.61599174  1  0  -0.936646  0  1.884422  0  0  -0.903132  0  2.078219  0  0  -0.920745  0  2.043258  0  0  -0.650775  -0.87988  0  2.10888  0
O  O91  1  0.13847241  0.60858361  0.88403640  1  0  -0.936586  0  1.884612  0  0  -0.903134  0  2.078281  0  0  -0.920741  0  2.043329  0  0  -0.650628  -0.879907  0  2.108874  0
O  O92  1  0.77543169  0.74553331  0.38400722  1  0  -0.936653  0  1.884454  0  0  -0.903143  0  2.07824  0  0  -0.920752  0  2.043283  0  0  -0.650786  -0.879889  0  2.108898  0
O  O93  1  0.86152880  0.39141720  0.11596305  1  0  -0.936603  0  1.884611  0  0  -0.903185  0  2.078204  0  0  -0.920787  0  2.043237  0  0  -0.650647  -0.879959  0  2.108796  0
