# generated using pymatgen
data_CuH8C7O5
_symmetry_space_group_name_H-M   'P 1'
_cell_length_a   8.37990907
_cell_length_b   8.38001012
_cell_length_c   14.65612200
_cell_angle_alpha   87.19793881
_cell_angle_beta   87.19781723
_cell_angle_gamma   79.03871613
_symmetry_Int_Tables_number   1
_chemical_formula_structural   CuH8C7O5
_chemical_formula_sum   'Cu4 H32 C28 O20'
_cell_volume   1008.39940614
_cell_formula_units_Z   4
loop_
 _symmetry_equiv_pos_site_id
 _symmetry_equiv_pos_as_xyz
  1  'x, y, z'
loop_
 _atom_site_type_symbol
 _atom_site_label
 _atom_site_symmetry_multiplicity
 _atom_site_fract_x
 _atom_site_fract_y
 _atom_site_fract_z
 _atom_site_occupancy
 _atom_site_pbe_bader_charge
 _atom_site_pbe_bader_spin_density
 _atom_site_pbe_cm5_charge
 _atom_site_pbe_ddec_charge
 _atom_site_pbe_ddec_spin_density
 _atom_site_pbe_ddec_sum_bond_order
 _atom_site_pbe_magmom
Cu  Cu0  1  0.96913667  0.65346983  0.49007083  1  1.089587  0.568481  0.682092  0.855987  0.725172  2.266649  0.569
Cu  Cu1  1  0.34603932  0.03098815  0.01005947  1  1.093767  0.569012  0.682101  0.855557  0.725631  2.268109  0.569
Cu  Cu2  1  0.03095757  0.34611859  0.51004310  1  1.093605  0.568931  0.682115  0.855472  0.725511  2.267956  0.569
Cu  Cu3  1  0.65340323  0.96915718  0.99008384  1  1.089561  0.568416  0.682261  0.856182  0.7251  2.26609  0.569
H  H4  1  0.88347941  0.03947184  0.46047996  1  0.635821  -0.000214  0.31307  0.407059  -0.000206  0.896122  0.0
H  H5  1  0.92220444  0.93570744  0.37498551  1  0.632255  -8.6e-05  0.32636  0.410624  -7.5e-05  0.869245  0.0
H  H6  1  0.54404970  0.36391951  0.41844519  1  0.046602  0.000263  0.098731  0.10639  0.000111  0.979112  0.0
H  H7  1  0.52528345  0.57964961  0.41147573  1  0.024259  0.000275  0.099609  0.108605  8.5e-05  0.978466  0.0
H  H8  1  0.40249027  0.22371518  0.30667482  1  0.058366  0.00045  0.097267  0.111233  0.000273  0.973872  0.0
H  H9  1  0.28480024  0.33835506  0.22070675  1  0.056817  0.00036  0.096692  0.11056  0.00021  0.98022  0.0
H  H10  1  0.35233851  0.74622290  0.28925386  1  0.045212  0.000407  0.095002  0.106174  0.000242  0.976675  0.0
H  H11  1  0.80774238  0.28771952  0.20354897  1  0.055718  0.000515  0.091712  0.095801  0.000308  0.998721  0.0
H  H12  1  0.96224273  0.11412841  0.03847128  1  0.634814  -0.000205  0.312532  0.406429  -0.0002  0.897192  0.0
H  H13  1  0.06387437  0.07867990  0.12491049  1  0.635849  -8.6e-05  0.326412  0.410348  -7.6e-05  0.869848  0.0
H  H14  1  0.63603204  0.45594420  0.08161194  1  0.046179  0.000263  0.098814  0.106573  0.000111  0.978529  0.0
H  H15  1  0.42028553  0.47475725  0.08858812  1  0.027643  0.000275  0.099703  0.108651  8.6e-05  0.978532  0.0
H  H16  1  0.77628623  0.59748352  0.19337870  1  0.059071  0.000449  0.097256  0.111265  0.000273  0.973382  0.0
H  H17  1  0.66166755  0.71514714  0.27936615  1  0.056124  0.000358  0.096718  0.110533  0.000208  0.9803  0.0
H  H18  1  0.25376195  0.64765932  0.21083929  1  0.045088  0.000406  0.09507  0.106175  0.000242  0.976564  0.0
H  H19  1  0.71229525  0.19219026  0.29641720  1  0.055135  0.000516  0.091519  0.095402  0.000309  0.998865  0.0
H  H20  1  0.11453742  0.96194206  0.53864652  1  0.633507  -0.000207  0.312647  0.406691  -0.000201  0.896862  0.0
H  H21  1  0.07854955  0.06392450  0.62493185  1  0.635149  -8.6e-05  0.326289  0.410197  -7.6e-05  0.870022  0.0
H  H22  1  0.45594824  0.63603955  0.58161160  1  0.045787  0.000263  0.098796  0.106551  0.000111  0.978436  0.0
H  H23  1  0.47475473  0.42029925  0.58858496  1  0.027306  0.000275  0.099686  0.108646  8.6e-05  0.978578  0.0
H  H24  1  0.59747022  0.77629070  0.69338647  1  0.05899  0.000449  0.097281  0.111305  0.000273  0.973406  0.0
H  H25  1  0.71512734  0.66166230  0.77937428  1  0.055919  0.000358  0.096671  0.110463  0.000208  0.98041  0.0
H  H26  1  0.64764898  0.25377144  0.71083018  1  0.045059  0.000406  0.095058  0.10615  0.000242  0.976567  0.0
H  H27  1  0.19216214  0.71228328  0.79641716  1  0.055535  0.000516  0.091444  0.095219  0.000309  0.99883  0.0
H  H28  1  0.03981318  0.88313686  0.96030155  1  0.637146  -0.000216  0.313112  0.407401  -0.000207  0.895656  0.0
H  H29  1  0.93571456  0.92234624  0.87495651  1  0.631984  -8.6e-05  0.326229  0.41066  -7.5e-05  0.869119  0.0
H  H30  1  0.36390746  0.54402811  0.91845232  1  0.04623  0.000263  0.098705  0.106372  0.000111  0.97888  0.0
H  H31  1  0.57964048  0.52527226  0.91147622  1  0.024465  0.000274  0.099606  0.108591  8.5e-05  0.978443  0.0
H  H32  1  0.22369691  0.40248511  0.80666869  1  0.058196  0.000449  0.097298  0.111242  0.000272  0.973829  0.0
H  H33  1  0.33834501  0.28480953  0.72069575  1  0.056526  0.00036  0.096692  0.110561  0.000209  0.980195  0.0
H  H34  1  0.74621227  0.35233364  0.78924791  1  0.045182  0.000407  0.095027  0.106208  0.000242  0.976835  0.0
H  H35  1  0.28770541  0.80774533  0.70355901  1  0.055824  0.000515  0.091734  0.095831  0.000308  0.998659  0.0
C  C36  1  0.23729647  0.49640771  0.38504947  1  1.543522  -0.000275  0.223151  0.580184  -0.001282  4.07925  -0.004
C  C37  1  0.37983389  0.48483177  0.31529458  1  0.029892  0.020794  -0.012819  0.058193  0.014557  3.788531  0.016
C  C38  1  0.53327073  0.47097269  0.37105781  1  -0.028362  0.000462  -0.153981  -0.232861  7.5e-05  3.820904  0.0
C  C39  1  0.68519714  0.45493879  0.30533668  1  0.028768  0.021041  -0.009884  0.057666  0.014719  3.769737  0.017
C  C40  1  0.82286191  0.45286876  0.37022754  1  1.551437  -8.9e-05  0.222347  0.583576  -0.001025  4.080951  -0.003
C  C41  1  0.39417144  0.33139742  0.26008695  1  -0.029701  0.003843  -0.162518  -0.236086  0.002939  3.85913  0.002
C  C42  1  0.50352230  0.76267777  0.11501452  1  1.542566  -0.000263  0.223177  0.580188  -0.001268  4.079496  -0.004
C  C43  1  0.51515037  0.62015866  0.18477479  1  0.030951  0.020792  -0.013102  0.0581  0.014557  3.787442  0.016
C  C44  1  0.52897557  0.46674326  0.12899956  1  -0.030116  0.000457  -0.153968  -0.232945  7e-05  3.820038  0.0
C  C45  1  0.54499164  0.31481208  0.19471377  1  0.027808  0.021092  -0.010066  0.058092  0.014751  3.769536  0.017
C  C46  1  0.54696261  0.17713014  0.12983783  1  1.554156  -0.000106  0.221956  0.583186  -0.001038  4.080942  -0.003
C  C47  1  0.66860469  0.60579619  0.23997771  1  -0.030746  0.003845  -0.162368  -0.235724  0.002939  3.858227  0.002
C  C48  1  0.76268772  0.50352019  0.61502023  1  1.541587  -0.000255  0.223097  0.579934  -0.001272  4.079772  -0.004
C  C49  1  0.62015396  0.51514695  0.68478309  1  0.031907  0.02078  -0.013079  0.058137  0.014557  3.787158  0.016
C  C50  1  0.46670174  0.52898818  0.62900035  1  -0.029837  0.000458  -0.153974  -0.232887  7.1e-05  3.820349  0.0
C  C51  1  0.31480143  0.54499141  0.69470115  1  0.028061  0.021073  -0.010007  0.057835  0.014739  3.770269  0.017
C  C52  1  0.17712882  0.54698630  0.62982704  1  1.553586  -9.8e-05  0.222198  0.583809  -0.001038  4.080708  -0.003
C  C53  1  0.60578682  0.66860169  0.73998348  1  -0.03002  0.003841  -0.162361  -0.235714  0.002937  3.858231  0.002
C  C54  1  0.49640148  0.23729354  0.88504954  1  1.543464  -0.000277  0.223092  0.580221  -0.001284  4.079441  -0.004
C  C55  1  0.48482747  0.37983122  0.81528783  1  0.030282  0.020791  -0.012885  0.05814  0.014555  3.78852  0.016
C  C56  1  0.47096452  0.53325402  0.87105849  1  -0.028399  0.000463  -0.153821  -0.232712  7.6e-05  3.820373  0.0
C  C57  1  0.45492515  0.68519741  0.80534528  1  0.028825  0.021027  -0.00998  0.057741  0.014709  3.769288  0.017
C  C58  1  0.45285668  0.82285483  0.87023502  1  1.551323  -8.5e-05  0.222248  0.583528  -0.00102  4.080918  -0.003
C  C59  1  0.33139059  0.39417287  0.76007955  1  -0.029323  0.00384  -0.16254  -0.236045  0.002937  3.859163  0.002
C  C60  1  0.36415884  0.63584076  0.25003880  1  -0.033713  0.00436  -0.160202  -0.233235  0.003355  3.862789  0.003
C  C61  1  0.69936426  0.30061174  0.25000317  1  -0.071438  0.003481  -0.159396  -0.231661  0.00274  3.853445  0.002
C  C62  1  0.63584302  0.36415956  0.75003714  1  -0.03365  0.004356  -0.160261  -0.233326  0.003353  3.86311  0.003
C  C63  1  0.30060762  0.69936699  0.75001014  1  -0.07224  0.003479  -0.159289  -0.231482  0.002738  3.853234  0.002
O  O64  1  0.16139462  0.63810990  0.40487288  1  -1.108843  0.098664  -0.319265  -0.52852  0.062679  2.341007  0.09
O  O65  1  0.20991067  0.36181096  0.42062251  1  -1.101143  0.093015  -0.314979  -0.52407  0.058954  2.358886  0.085
O  O66  1  0.89141282  0.31722793  0.40698155  1  -1.122859  0.098947  -0.318349  -0.53884  0.062941  2.317519  0.09
O  O67  1  0.84825323  0.59277627  0.38856465  1  -1.118137  0.090266  -0.316234  -0.536003  0.057244  2.391061  0.083
O  O68  1  0.88949940  0.92955233  0.43942609  1  -1.239118  -0.001455  -0.577671  -0.7633  -0.001265  1.977756  0.0
O  O69  1  0.36180800  0.83856258  0.09520980  1  -1.109294  0.098578  -0.31947  -0.529144  0.062628  2.342141  0.09
O  O70  1  0.63808715  0.79005396  0.07940443  1  -1.100319  0.093067  -0.315024  -0.524269  0.058984  2.359533  0.085
O  O71  1  0.68256963  0.10840179  0.09315746  1  -1.122821  0.099346  -0.318046  -0.537985  0.063191  2.316687  0.09
O  O72  1  0.40699567  0.15194271  0.11145972  1  -1.119076  0.090453  -0.316094  -0.535729  0.057343  2.390912  0.083
O  O73  1  0.07078788  0.11204119  0.06059508  1  -1.241254  -0.001466  -0.57807  -0.761964  -0.001265  1.979016  0.0
O  O74  1  0.83854717  0.36181904  0.59520348  1  -1.109328  0.098567  -0.319337  -0.528805  0.062621  2.342412  0.09
O  O75  1  0.79006650  0.63810245  0.57941507  1  -1.100561  0.093047  -0.315002  -0.524213  0.058974  2.359366  0.085
O  O76  1  0.10842816  0.68261741  0.59314251  1  -1.122498  0.099261  -0.31822  -0.538395  0.063145  2.316425  0.09
O  O77  1  0.15188846  0.40704547  0.61146944  1  -1.11894  0.090383  -0.316205  -0.536042  0.057301  2.391223  0.083
O  O78  1  0.11183455  0.07071472  0.56060042  1  -1.239319  -0.001464  -0.577925  -0.762192  -0.001266  1.978407  0.0
O  O79  1  0.63809067  0.16139862  0.90487985  1  -1.108878  0.098642  -0.31937  -0.528581  0.062666  2.341269  0.09
O  O80  1  0.36178962  0.20990102  0.92061508  1  -1.101154  0.092999  -0.314858  -0.524106  0.058945  2.358798  0.085
O  O81  1  0.31720235  0.89139527  0.90699664  1  -1.122789  0.098865  -0.318328  -0.539048  0.06289  2.317451  0.09
O  O82  1  0.59273926  0.84826993  0.88856460  1  -1.118163  0.090186  -0.316153  -0.536006  0.057197  2.391235  0.083
O  O83  1  0.92966250  0.88986191  0.93943470  1  -1.240372  -0.001454  -0.577479  -0.763751  -0.001265  1.97757  0.0
