# generated using pymatgen
data_Cu2H8C11(SN)4
_symmetry_space_group_name_H-M   'P 1'
_cell_length_a   7.15844922
_cell_length_b   6.81067315
_cell_length_c   15.12786392
_cell_angle_alpha   89.97537148
_cell_angle_beta   85.70057833
_cell_angle_gamma   89.49344321
_symmetry_Int_Tables_number   1
_chemical_formula_structural   Cu2H8C11(SN)4
_chemical_formula_sum   'Cu4 H16 C22 S8 N8'
_cell_volume   735.43744066
_cell_formula_units_Z   2
loop_
 _symmetry_equiv_pos_site_id
 _symmetry_equiv_pos_as_xyz
  1  'x, y, z'
loop_
 _atom_site_type_symbol
 _atom_site_label
 _atom_site_symmetry_multiplicity
 _atom_site_fract_x
 _atom_site_fract_y
 _atom_site_fract_z
 _atom_site_occupancy
 _atom_site_pbe_bader_charge
 _atom_site_pbe_bader_spin_density
 _atom_site_pbe_cm5_charge
 _atom_site_pbe_ddec_charge
 _atom_site_pbe_ddec_spin_density
 _atom_site_pbe_ddec_sum_bond_order
 _atom_site_pbe_magmom
Cu  Cu0  1  0.51033648  0.99930155  0.77188893  1  0.807083  0  0.604985  0.490977  0  2.273796  0
Cu  Cu1  1  0.48934618  0.00068773  0.22805326  1  0.806824  0  0.60518  0.490964  0  2.2747  0
Cu  Cu2  1  0.50028101  0.49997486  0.50006258  1  0.576516  0  0.486916  0.345414  0  3.148174  0
Cu  Cu3  1  0.99946539  0.00001820  0.99995678  1  0.557591  0  0.444886  0.372662  0  2.957671  0
H  H4  1  0.81776328  0.00172658  0.59268127  1  0.087756  0  0.09965  0.079235  0  1.050335  0
H  H5  1  0.18308202  0.99822291  0.40697853  1  0.084866  0  0.09971  0.079143  0  1.050712  0
H  H6  1  0.48765060  0.31365651  0.91327698  1  0.123425  0  0.107226  0.091621  0  1.027877  0
H  H7  1  0.51166548  0.68637105  0.08688728  1  0.126496  0  0.107384  0.092092  0  1.027746  0
H  H8  1  0.49115747  0.68500433  0.91321202  1  0.082909  0  0.107301  0.091798  0  1.02911  0
H  H9  1  0.50813878  0.31502323  0.08693633  1  0.084382  0  0.107094  0.091317  0  1.029038  0
H  H10  1  0.17434989  0.99902257  0.57894537  1  0.079314  0  0.102861  0.083216  0  1.019493  0
H  H11  1  0.82644243  0.00104019  0.42112211  1  0.082092  0  0.102777  0.083049  0  1.019776  0
H  H12  1  0.89012933  0.57335094  0.62803226  1  0.097812  0  0.087778  0.143218  0  1.056437  0
H  H13  1  0.11039819  0.42668527  0.37182111  1  0.10289  0  0.087663  0.143183  0  1.056618  0
H  H14  1  0.11134517  0.42554894  0.62184809  1  0.09635  0  0.087477  0.140878  0  1.05989  0
H  H15  1  0.88923732  0.57456665  0.37817432  1  0.099574  0  0.087519  0.141137  0  1.060322  0
H  H16  1  0.06674726  0.61778226  0.87074416  1  0.097272  0  0.086181  0.142289  0  1.064386  0
H  H17  1  0.93271452  0.38217477  0.12931536  1  0.095449  0  0.086058  0.142304  0  1.064311  0
H  H18  1  0.92727681  0.38742283  0.87599365  1  0.080647  0  0.086178  0.142131  0  1.061771  0
H  H19  1  0.07226147  0.61248566  0.12389419  1  0.081219  0  0.086266  0.142604  0  1.061228  0
C  C20  1  0.89987171  0.00052594  0.65034140  1  0.51718  0  0.027542  0.02938  0  3.982543  0
C  C21  1  0.10059219  0.99945885  0.34944899  1  0.500262  0  0.027407  0.029141  0  3.983135  0
C  C22  1  0.49153107  0.39811030  0.85216912  1  0.541242  0  0.030989  0.033146  0  3.959303  0
C  C23  1  0.50810609  0.60188496  0.14798056  1  0.540068  0  0.030705  0.031754  0  3.959476  0
C  C24  1  0.89946734  0.99980519  0.80310808  1  0.357638  0  0.109859  0.170225  0  4.02222  0
C  C25  1  0.10021713  0.00017814  0.19669954  1  0.360547  0  0.109455  0.169655  0  4.022181  0
C  C26  1  0.49921224  0.60424204  0.69924201  1  0.356778  0  0.117147  0.164028  0  4.001301  0
C  C27  1  0.50110453  0.39572677  0.30088711  1  0.355937  0  0.117398  0.165078  0  3.999919  0
C  C28  1  0.49292270  0.60061067  0.85215586  1  0.430615  0  0.030692  0.030025  0  3.965024  0
C  C29  1  0.50670826  0.39939192  0.14798852  1  0.43019  0  0.030745  0.030528  0  3.963935  0
C  C30  1  0.49761130  0.39463050  0.69926986  1  0.496881  0  0.118036  0.166987  0  3.998995  0
C  C31  1  0.50271462  0.60535006  0.30086259  1  0.497863  0  0.117585  0.165513  0  3.999621  0
C  C32  1  0.09412309  0.00002151  0.64313836  1  0.466995  0  0.030525  0.039123  0  4.001443  0
C  C33  1  0.90634765  0.99999818  0.35684758  1  0.471616  0  0.031253  0.039866  0  4.001132  0
C  C34  1  0.09859363  0.00078716  0.79477348  1  0.537913  0  0.109694  0.168476  0  4.034327  0
C  C35  1  0.90110293  0.99921536  0.20523898  1  0.534684  0  0.110459  0.169529  0  4.033153  0
C  C36  1  0.99835027  0.50110811  0.74917144  1  -0.718699  0  -0.026963  0.195564  0  4.059544  0
C  C37  1  0.00169557  0.49890025  0.25077870  1  -0.717478  0  -0.027483  0.195247  0  4.059805  0
C  C38  1  0.99740751  0.50214108  0.83570275  1  0.197688  0  -0.209126  -0.388767  0  3.950866  0
C  C39  1  0.00225044  0.49782031  0.16426464  1  0.19605  0  -0.209184  -0.389704  0  3.95089  0
C  C40  1  0.99974077  0.49990479  0.66259175  1  0.116462  0  -0.209453  -0.391371  0  3.954969  0
C  C41  1  0.00067912  0.50016377  0.33734846  1  0.10972  0  -0.208718  -0.390886  0  3.955634  0
S  S42  1  0.50838486  0.73179571  0.60060819  1  -0.101572  0  -0.138507  -0.229973  0  2.776199  0
S  S43  1  0.49217197  0.26815695  0.39951431  1  -0.104199  0  -0.138498  -0.230183  0  2.774681  0
S  S44  1  0.77629752  0.99987899  0.90599042  1  -0.207231  0  -0.183172  -0.311448  0  2.766631  0
S  S45  1  0.22294441  0.00013514  0.09373435  1  -0.204968  0  -0.182932  -0.310859  0  2.766594  0
S  S46  1  0.22618594  0.00067085  0.88780979  1  -0.207473  0  -0.173848  -0.310019  0  2.894723  0
S  S47  1  0.77311085  0.99935522  0.11230873  1  -0.209377  0  -0.174043  -0.310574  0  2.894855  0
S  S48  1  0.50122818  0.26728608  0.60071426  1  -0.115722  0  -0.137324  -0.227085  0  2.771992  0
S  S49  1  0.49939310  0.73267392  0.39941554  1  -0.115842  0  -0.137056  -0.226564  0  2.771397  0
N  N50  1  0.49480273  0.29451015  0.77579075  1  -1.197707  0  -0.341635  -0.207633  0  3.604835  0
N  N51  1  0.50519763  0.70547042  0.22435098  1  -1.20018  0  -0.341451  -0.206484  0  3.60452  0
N  N52  1  0.80343760  0.99961630  0.73034251  1  -1.210859  0  -0.333786  -0.235711  0  3.551359  0
N  N53  1  0.19660730  0.00036697  0.26935044  1  -1.199522  0  -0.334584  -0.235958  0  3.553717  0
N  N54  1  0.19267776  0.00062410  0.71518138  1  -1.183456  0  -0.31561  -0.254555  0  3.469724  0
N  N55  1  0.80742004  0.99941958  0.28492388  1  -1.183615  0  -0.315986  -0.255081  0  3.468541  0
N  N56  1  0.49678770  0.70430649  0.77575164  1  -1.194813  0  -0.340524  -0.204725  0  3.601873  0
N  N57  1  0.50319018  0.29568582  0.22438147  1  -1.194084  0  -0.340697  -0.204917  0  3.601806  0
