# generated using pymatgen
data_MnH6(C2O3)2
_symmetry_space_group_name_H-M   'P 1'
_cell_length_a   9.68807836
_cell_length_b   9.68798912
_cell_length_c   9.77380000
_cell_angle_alpha   96.31970802
_cell_angle_beta   96.31964956
_cell_angle_gamma   96.25036432
_symmetry_Int_Tables_number   1
_chemical_formula_structural   MnH6(C2O3)2
_chemical_formula_sum   'Mn6 H36 C24 O36'
_cell_volume   899.41172869
_cell_formula_units_Z   6
loop_
 _symmetry_equiv_pos_site_id
 _symmetry_equiv_pos_as_xyz
  1  'x, y, z'
loop_
 _atom_site_type_symbol
 _atom_site_label
 _atom_site_symmetry_multiplicity
 _atom_site_fract_x
 _atom_site_fract_y
 _atom_site_fract_z
 _atom_site_occupancy
 _atom_site_hle17_ddec_charge
 _atom_site_hle17_ddec_spin_density
 _atom_site_hle17_ddec_sum_bond_order
 _atom_site_hle17_magmom
 _atom_site_hse06_10hf_ddec_charge
 _atom_site_hse06_10hf_ddec_spin_density
 _atom_site_hse06_10hf_ddec_sum_bond_order
 _atom_site_hse06_10hf_magmom
 _atom_site_hse06_ddec_charge
 _atom_site_hse06_ddec_spin_density
 _atom_site_hse06_ddec_sum_bond_order
 _atom_site_hse06_magmom
 _atom_site_pbe_bader_charge
 _atom_site_pbe_bader_spin_density
 _atom_site_pbe_cm5_charge
 _atom_site_pbe_ddec_charge
 _atom_site_pbe_ddec_spin_density
 _atom_site_pbe_ddec_sum_bond_order
 _atom_site_pbe_magmom
Mn  Mn0  1  0.79057073  0.16272061  0.37745361  1  1.2629  4.798161  1.667492  4.692  1.105124  4.727533  2.15587  4.559  1.162628  4.766334  2.08378  4.615  1.531853  4.573338  0.591764  1.061104  4.687801  2.208577  4.503
Mn  Mn1  1  0.37764746  0.78992940  0.16287870  1  1.264368  4.798546  1.663714  4.692  1.105972  4.726855  2.152115  4.56  1.163558  4.765554  2.079947  4.616  1.532968  4.574391  0.591974  1.061885  4.687262  2.204912  4.504
Mn  Mn2  1  0.16387758  0.37664338  0.79031398  1  1.265054  4.797763  1.661025  4.693  1.107215  4.727602  2.148627  4.56  1.164764  4.766164  2.076559  4.616  1.533476  4.574782  0.592116  1.063165  4.688153  2.201295  4.505
Mn  Mn3  1  0.20942693  0.83727874  0.62254545  1  1.262917  4.798163  1.667493  4.692  1.105119  4.727535  2.155887  4.559  1.162626  4.766341  2.083791  4.615  1.531908  4.573322  0.591759  1.061097  4.687804  2.208593  4.503
Mn  Mn4  1  0.62235396  0.21007518  0.83712134  1  1.264357  4.798509  1.663756  4.692  1.105969  4.726822  2.152141  4.56  1.163547  4.76552  2.079993  4.616  1.53297  4.57439  0.591973  1.061882  4.687229  2.204938  4.504
Mn  Mn5  1  0.83612165  0.62335178  0.20968889  1  1.265029  4.797743  1.661105  4.693  1.107206  4.727581  2.148661  4.56  1.164725  4.766142  2.076646  4.616  1.533319  4.574811  0.592101  1.063153  4.688131  2.20133  4.505
H  H6  1  0.69534469  0.97937178  0.16171255  1  0.432042  -0.000747  0.855713  0.0  0.396196  -0.000139  0.937143  0.001  0.407703  -0.000395  0.920516  0.001  0.625898  0.000952  0.303017  0.387897  4.9e-05  0.948673  0.001
H  H7  1  0.16163092  0.69536778  0.97965356  1  0.432072  -0.00074  0.854848  0.0  0.396831  -0.000138  0.935578  0.001  0.408276  -0.000388  0.919045  0.001  0.67136  0.000817  0.303153  0.388559  4.8e-05  0.946745  0.001
H  H8  1  0.97809968  0.16158004  0.69536453  1  0.433441  -0.000755  0.850376  0.0  0.397793  -0.000139  0.93359  0.001  0.409268  -0.000394  0.916951  0.001  0.644284  0.000914  0.304227  0.38949  4.9e-05  0.943392  0.001
H  H9  1  0.30465713  0.02062757  0.83828696  1  0.432022  -0.000748  0.855738  0.0  0.396171  -0.000139  0.937178  0.001  0.407679  -0.000395  0.920549  0.001  0.625889  0.000952  0.303001  0.387871  4.9e-05  0.948706  0.001
H  H10  1  0.83836986  0.30463156  0.02034686  1  0.432023  -0.000743  0.854804  0.0  0.396778  -0.000138  0.935634  0.001  0.408223  -0.000387  0.9191  0.001  0.671364  0.000817  0.303125  0.388506  4.8e-05  0.946722  0.001
H  H11  1  0.02189903  0.83841931  0.30463362  1  0.433456  -0.000753  0.850326  0.0  0.397825  -0.000139  0.933537  0.001  0.409297  -0.000394  0.916897  0.001  0.644287  0.000913  0.304242  0.389523  4.9e-05  0.943318  0.001
H  H12  1  0.85451546  0.94288296  0.18026931  1  0.43745  -0.00064  0.854717  0.001  0.406584  4.8e-05  0.91786  0.002  0.416977  -0.000246  0.90264  0.001  0.64932  0.001406  0.300825  0.398918  0.000345  0.929156  0.002
H  H13  1  0.17986429  0.85421673  0.94290364  1  0.437403  -0.000649  0.853427  0.001  0.406344  1.8e-05  0.91692  0.002  0.416802  -0.000272  0.901636  0.001  0.657314  0.001398  0.300324  0.398627  0.000311  0.928252  0.002
H  H14  1  0.94284234  0.18001437  0.85351178  1  0.436977  -0.00063  0.852243  0.001  0.406222  5.9e-05  0.916585  0.002  0.416613  -0.000233  0.901382  0.001  0.636416  0.001469  0.301643  0.398574  0.000354  0.927837  0.002
H  H15  1  0.14548636  0.05711639  0.81973122  1  0.437474  -0.000641  0.854684  0.001  0.406607  4.8e-05  0.917828  0.002  0.417  -0.000245  0.902608  0.001  0.649331  0.001406  0.300839  0.398941  0.000345  0.929123  0.002
H  H16  1  0.82013532  0.14578157  0.05709654  1  0.437408  -0.000648  0.853418  0.001  0.406352  1.8e-05  0.916903  0.002  0.416813  -0.000273  0.901617  0.001  0.657305  0.001398  0.300338  0.398636  0.00031  0.928234  0.002
H  H17  1  0.05715740  0.81998498  0.14648750  1  0.436963  -0.000623  0.852253  0.001  0.40621  5.9e-05  0.916599  0.002  0.416602  -0.000234  0.901394  0.001  0.63641  0.001468  0.301642  0.398564  0.000354  0.927848  0.002
H  H18  1  0.82501943  0.38212230  0.58603168  1  0.431504  -0.000659  0.853079  0.001  0.397267  -0.000131  0.934305  0.001  0.407869  -0.000406  0.91899  0.001  0.647494  0.001343  0.302561  0.389848  0.000124  0.944009  0.001
H  H19  1  0.58628135  0.82489781  0.38329774  1  0.431615  -0.000664  0.853326  0.001  0.396576  -0.000143  0.935444  0.001  0.407168  -0.000417  0.920168  0.001  0.654429  0.001344  0.302214  0.389164  0.000109  0.945563  0.001
H  H20  1  0.38277890  0.58639732  0.82483026  1  0.43119  -0.000649  0.855149  0.001  0.39677  -0.00011  0.935628  0.001  0.407362  -0.000388  0.920316  0.001  0.655854  0.00133  0.302618  0.38934  0.000144  0.946168  0.001
H  H21  1  0.17498148  0.61787809  0.41396887  1  0.431536  -0.000659  0.853044  0.001  0.397301  -0.00013  0.934256  0.001  0.407903  -0.000406  0.918941  0.001  0.647508  0.001343  0.302574  0.389882  0.000124  0.943966  0.001
H  H22  1  0.41371852  0.17510259  0.61670372  1  0.431562  -0.000666  0.853255  0.001  0.396518  -0.000143  0.935497  0.001  0.40711  -0.000417  0.920221  0.001  0.654433  0.001344  0.302186  0.389107  0.000109  0.945512  0.001
H  H23  1  0.61721981  0.41360203  0.17517096  1  0.431227  -0.000646  0.855091  0.001  0.396804  -0.00011  0.935584  0.001  0.407395  -0.000388  0.920271  0.001  0.655858  0.00133  0.302636  0.389374  0.000144  0.946122  0.001
H  H24  1  0.66566483  0.32026574  0.56486966  1  0.437947  -0.000671  0.829279  0.0  0.408171  2e-06  0.90548  0.001  0.41799  -0.000243  0.892507  0.001  0.629872  0.000959  0.311556  0.401149  0.000227  0.913985  0.001
H  H25  1  0.56525314  0.66544509  0.32141107  1  0.438417  -0.000623  0.830568  0.0  0.408524  6.7e-05  0.906741  0.001  0.418327  -0.000187  0.892715  0.001  0.626031  0.000986  0.311935  0.401516  0.000297  0.915221  0.001
H  H26  1  0.32089325  0.56483427  0.66667672  1  0.440951  -0.000663  0.824747  0.0  0.410638  2.5e-05  0.901863  0.001  0.420442  -0.00022  0.889213  0.001  0.631072  0.000971  0.313938  0.403579  0.00025  0.910486  0.001
H  H27  1  0.33433724  0.67973570  0.43513113  1  0.437945  -0.000677  0.829279  0.0  0.408168  3e-06  0.905483  0.001  0.417988  -0.000243  0.89251  0.001  0.629866  0.000959  0.311551  0.401146  0.000227  0.913988  0.001
H  H28  1  0.43474569  0.33455531  0.67858925  1  0.438398  -0.000629  0.830589  0.0  0.408509  6.7e-05  0.906756  0.001  0.418312  -0.000187  0.892737  0.001  0.626004  0.000986  0.31193  0.401499  0.000297  0.915239  0.001
H  H29  1  0.67910766  0.43516613  0.33332486  1  0.440939  -0.000638  0.824748  0.001  0.410625  2.5e-05  0.901866  0.001  0.42043  -0.00022  0.889226  0.001  0.631061  0.000971  0.313928  0.403567  0.00025  0.910489  0.001
H  H30  1  0.63183192  0.77136322  0.58352955  1  0.100109  -7.7e-05  0.933331  0.0  0.107856  0.000343  0.997128  0.001  0.111675  0.00011  0.994488  0.0  0.101882  0.001924  0.111457  0.104831  0.000617  0.999517  0.001
H  H31  1  0.58292973  0.63258831  0.77214278  1  0.098754  -6.3e-05  0.935365  0.0  0.107432  0.000357  0.99852  0.001  0.111202  0.000118  0.995872  0.0  0.104898  0.001956  0.111082  0.104422  0.000632  1.000887  0.001
H  H32  1  0.77141337  0.58187062  0.63400060  1  0.099387  -6.5e-05  0.934418  0.0  0.107282  0.000356  0.998495  0.001  0.111066  0.000119  0.995769  0.0  0.087138  0.001957  0.110776  0.104265  0.000635  1.00091  0.001
H  H33  1  0.36816665  0.22863508  0.41646949  1  0.100077  -9.2e-05  0.93337  0.0  0.107831  0.000343  0.99714  0.001  0.111651  0.00011  0.994499  0.0  0.101891  0.001924  0.111446  0.104806  0.000617  0.999529  0.001
H  H34  1  0.41707014  0.36741209  0.22785664  1  0.098769  -6e-05  0.935342  0.0  0.107437  0.000357  0.99851  0.001  0.111206  0.000117  0.995865  0.0  0.104907  0.001956  0.111083  0.104428  0.000632  1.000878  0.001
H  H35  1  0.22858650  0.41812978  0.36599882  1  0.09939  -6.8e-05  0.934417  0.0  0.107287  0.000356  0.998493  0.001  0.11107  0.000119  0.99577  0.0  0.087131  0.001958  0.110783  0.104269  0.000635  1.000908  0.001
H  H36  1  0.92928909  0.87494580  0.72394634  1  0.088033  0.000364  0.922411  0.0  0.098584  0.000899  0.983534  0.0  0.101189  0.00064  0.981976  0.0  0.036222  0.00188  0.10711  0.09661  0.001027  0.985057  0.0
H  H37  1  0.72567553  0.92978524  0.87363375  1  0.088772  0.000346  0.920452  0.0  0.099385  0.000884  0.98124  0.0  0.101912  0.00063  0.979791  0.0  0.050654  0.001847  0.106857  0.09748  0.001011  0.982677  0.0
H  H38  1  0.87602460  0.72588064  0.92795627  1  0.088451  0.000278  0.92  0.0  0.098659  0.000794  0.981247  0.0  0.101218  0.000546  0.979786  0.0  0.068942  0.001761  0.106542  0.096745  0.000919  0.982654  0.0
H  H39  1  0.07071078  0.12505459  0.27605307  1  0.088036  0.000355  0.922439  0.0  0.098596  0.000899  0.98355  0.0  0.101202  0.00064  0.981991  0.0  0.036213  0.00188  0.107113  0.096621  0.001027  0.985072  0.0
H  H40  1  0.27432422  0.07021411  0.12636554  1  0.08875  0.000351  0.920439  0.0  0.099354  0.000884  0.981237  0.0  0.101877  0.000631  0.979789  0.0  0.05064  0.001847  0.106854  0.097451  0.001012  0.982671  0.0
H  H41  1  0.12397527  0.27411975  0.07204315  1  0.088422  0.000283  0.920028  0.0  0.098645  0.000795  0.981261  0.0  0.101202  0.000546  0.979803  0.0  0.068938  0.001761  0.106541  0.09673  0.000919  0.982669  0.0
C  C42  1  0.70517336  0.84811102  0.65505114  1  -0.145567  0.000826  3.61569  0.001  -0.157469  0.00235  3.854745  0.002  -0.162649  0.001436  3.866583  0.002  -0.037719  0.005207  -0.085205  -0.153553  0.003486  3.846436  0.003
C  C43  1  0.65524423  0.70588614  0.84809005  1  -0.14478  0.000775  3.614164  0.001  -0.157295  0.002428  3.853332  0.002  -0.162381  0.00149  3.865004  0.002  -0.025876  0.005309  -0.085245  -0.153393  0.003583  3.845091  0.003
C  C44  1  0.84842298  0.65458352  0.70581572  1  -0.142161  0.000787  3.610167  0.001  -0.154359  0.00234  3.849587  0.002  -0.159369  0.001419  3.861176  0.002  0.001148  0.005116  -0.083802  -0.150483  0.003458  3.841302  0.003
C  C45  1  0.29482652  0.15188938  0.34495032  1  -0.145542  0.000843  3.615726  0.001  -0.157435  0.002351  3.85479  0.002  -0.162615  0.001432  3.86663  0.002  -0.037813  0.005207  -0.085185  -0.153516  0.003486  3.846479  0.003
C  C46  1  0.34475435  0.29411216  0.15191002  1  -0.14478  0.000785  3.614062  0.001  -0.157283  0.002432  3.853232  0.002  -0.162369  0.001488  3.864903  0.002  -0.025951  0.005308  -0.085237  -0.15338  0.003583  3.844989  0.003
C  C47  1  0.15157586  0.34541688  0.29418358  1  -0.142151  0.000812  3.610168  0.001  -0.154349  0.002339  3.84961  0.002  -0.159363  0.001427  3.861202  0.002  0.001203  0.005116  -0.083775  -0.150473  0.003458  3.841324  0.003
C  C48  1  0.85196564  0.79950077  0.65527449  1  -0.133119  0.002207  3.603847  0.002  -0.148272  0.0038  3.848433  0.003  -0.15267  0.002724  3.860446  0.002  0.010182  0.00604  -0.082438  -0.145133  0.004705  3.840038  0.004
C  C49  1  0.65575428  0.85238763  0.79950973  1  -0.134314  0.002214  3.603269  0.002  -0.148966  0.003727  3.847251  0.003  -0.15344  0.002666  3.859405  0.002  0.018788  0.005901  -0.082925  -0.145759  0.004606  3.838702  0.003
C  C50  1  0.80068903  0.65589779  0.85179142  1  -0.131175  0.002173  3.597259  0.002  -0.145243  0.003625  3.840896  0.003  -0.149705  0.002569  3.853033  0.002  -0.022887  0.005917  -0.080933  -0.14205  0.004495  3.832363  0.003
C  C51  1  0.14803306  0.20049858  0.34472570  1  -0.133185  0.002238  3.603911  0.002  -0.148363  0.003801  3.848525  0.003  -0.152761  0.002718  3.860539  0.002  0.010161  0.00604  -0.082466  -0.145227  0.004705  3.840136  0.004
C  C52  1  0.34424560  0.14761276  0.20048969  1  -0.134266  0.002184  3.603201  0.002  -0.148902  0.003726  3.847173  0.003  -0.153374  0.002671  3.859329  0.002  0.018746  0.005901  -0.08291  -0.145698  0.004606  3.838624  0.003
C  C53  1  0.19931085  0.34410261  0.14820800  1  -0.131101  0.002164  3.597305  0.002  -0.14523  0.00362  3.84092  0.003  -0.149695  0.002573  3.853062  0.002  -0.02313  0.005917  -0.080932  -0.142037  0.004495  3.832386  0.003
C  C54  1  0.70668140  0.98913464  0.59900520  1  0.698574  0.012097  3.784762  0.012  0.643989  0.019861  4.084414  0.018  0.679333  0.014854  4.076725  0.014  1.555529  0.026058  0.228744  0.618934  0.025351  4.089227  0.022
C  C55  1  0.59870475  0.70746306  0.98785013  1  0.700122  0.012222  3.783814  0.012  0.64539  0.019916  4.083919  0.018  0.680798  0.014904  4.076103  0.014  1.545363  0.026197  0.228185  0.620297  0.025419  4.088823  0.022
C  C56  1  0.98932032  0.59810124  0.70727694  1  0.696535  0.012288  3.787941  0.012  0.641725  0.020082  4.08778  0.018  0.677055  0.015043  4.080109  0.014  1.540385  0.02625  0.227216  0.616702  0.025591  4.092528  0.022
C  C57  1  0.29331835  0.01086471  0.40099511  1  0.698682  0.012111  3.784709  0.012  0.64408  0.019859  4.084362  0.018  0.679426  0.014851  4.076672  0.014  1.555634  0.026059  0.22874  0.619023  0.025352  4.089177  0.022
C  C58  1  0.40129487  0.29253525  0.01215006  1  0.700137  0.012196  3.7838  0.012  0.645395  0.019914  4.083916  0.018  0.680803  0.014901  4.076101  0.014  1.54533  0.026194  0.228204  0.620305  0.025419  4.08882  0.022
C  C59  1  0.01068059  0.40189915  0.29272361  1  0.69668  0.012252  3.787706  0.012  0.641871  0.020081  4.087565  0.018  0.677203  0.015044  4.079886  0.014  1.540344  0.02625  0.227264  0.616848  0.02559  4.092315  0.022
C  C60  1  0.89611094  0.78628481  0.50889474  1  0.701286  0.007973  3.784803  0.008  0.646428  0.014436  4.086177  0.014  0.681282  0.010731  4.080068  0.011  1.573025  0.020545  0.232105  0.62158  0.019585  4.090135  0.018
C  C61  1  0.50851369  0.89685416  0.78686265  1  0.701443  0.008343  3.78714  0.009  0.646142  0.014952  4.088354  0.014  0.68101  0.011151  4.08225  0.011  1.56862  0.021253  0.23231  0.621222  0.020319  4.092377  0.019
C  C62  1  0.78762039  0.50885426  0.89676918  1  0.700679  0.008201  3.783514  0.009  0.645484  0.014746  4.08583  0.014  0.680251  0.010997  4.079767  0.011  1.573276  0.020931  0.23186  0.620636  0.019994  4.089836  0.018
C  C63  1  0.10388893  0.21371559  0.49110467  1  0.701268  0.007948  3.784803  0.008  0.646434  0.014436  4.086139  0.014  0.681287  0.010735  4.080032  0.011  1.573266  0.020539  0.232127  0.621587  0.019584  4.090095  0.018
C  C64  1  0.49148410  0.10314623  0.21313756  1  0.701405  0.008376  3.787147  0.009  0.646083  0.014952  4.088396  0.014  0.680949  0.011149  4.082297  0.011  1.568575  0.021254  0.232291  0.621164  0.02032  4.092419  0.019
C  C65  1  0.21238169  0.49114718  0.10323161  1  0.700469  0.008208  3.783731  0.009  0.645445  0.014747  4.08579  0.014  0.680211  0.010994  4.079731  0.011  1.57369  0.020929  0.231834  0.620598  0.019993  4.089796  0.018
O  O66  1  0.79571129  0.02099381  0.17762981  1  -0.84584  0.026477  1.917524  0.015  -0.780373  0.035948  2.130504  0.022  -0.803652  0.032152  2.093234  0.019  -1.270111  0.053266  -0.552297  -0.762884  0.03929  2.157071  0.024
O  O67  1  0.17671127  0.79581746  0.02059804  1  -0.844734  0.026296  1.91624  0.015  -0.779745  0.035773  2.128598  0.022  -0.802959  0.031987  2.091263  0.019  -1.323158  0.053043  -0.550716  -0.762279  0.039123  2.154965  0.024
O  O68  1  0.02034078  0.17693797  0.79457339  1  -0.842086  0.026592  1.919884  0.015  -0.777326  0.03596  2.135621  0.022  -0.80053  0.032206  2.098338  0.019  -1.271598  0.053333  -0.550398  -0.75981  0.039266  2.160622  0.024
O  O69  1  0.20428949  0.97900554  0.82236959  1  -0.845839  0.02648  1.91751  0.015  -0.780371  0.035947  2.130504  0.022  -0.803648  0.032151  2.093232  0.019  -1.270112  0.053265  -0.552294  -0.76288  0.039289  2.15707  0.024
O  O70  1  0.82328951  0.20418189  0.97940238  1  -0.844697  0.026298  1.916171  0.015  -0.779711  0.035773  2.128605  0.022  -0.802928  0.031988  2.091267  0.019  -1.323148  0.053042  -0.5507  -0.762243  0.039123  2.154899  0.024
O  O71  1  0.97965884  0.82306034  0.20542475  1  -0.842068  0.026577  1.919845  0.015  -0.777349  0.035957  2.135616  0.022  -0.800543  0.032205  2.098349  0.019  -1.271594  0.053326  -0.550416  -0.759833  0.039263  2.160592  0.024
O  O72  1  0.74416850  0.34783091  0.51363715  1  -0.828432  0.027989  1.90419  0.018  -0.768694  0.036315  2.130839  0.023  -0.790893  0.032457  2.096621  0.02  -1.255137  0.054378  -0.55179  -0.752082  0.039681  2.153175  0.026
O  O73  1  0.51348921  0.74435055  0.34739218  1  -0.830462  0.028068  1.909093  0.018  -0.769545  0.036385  2.136505  0.023  -0.791935  0.032539  2.101416  0.02  -1.258948  0.054399  -0.552075  -0.752846  0.039729  2.159143  0.026
O  O74  1  0.34834646  0.51331504  0.74466640  1  -0.83069  0.028347  1.911067  0.018  -0.770407  0.036568  2.137744  0.023  -0.792758  0.032727  2.103835  0.02  -1.264136  0.054849  -0.55211  -0.753656  0.039909  2.160876  0.026
O  O75  1  0.25583228  0.65216844  0.48636430  1  -0.828446  0.027998  1.904138  0.018  -0.768717  0.036314  2.130802  0.023  -0.790918  0.032457  2.096583  0.02  -1.255144  0.054378  -0.551799  -0.752106  0.039682  2.153142  0.026
O  O76  1  0.48651066  0.25564984  0.65260928  1  -0.830369  0.028076  1.908988  0.018  -0.769458  0.036383  2.136505  0.023  -0.791845  0.032537  2.101426  0.02  -1.258946  0.054399  -0.55203  -0.752759  0.039728  2.15905  0.026
O  O77  1  0.65165328  0.48668431  0.25533493  1  -0.83071  0.028313  1.911048  0.018  -0.77041  0.03657  2.137696  0.023  -0.79276  0.03273  2.103802  0.02  -1.263969  0.054821  -0.552107  -0.753659  0.03991  2.160825  0.026
O  O78  1  0.69176371  0.98638262  0.46666535  1  -0.656802  0.03309  2.025839  0.022  -0.584999  0.041805  2.279338  0.027  -0.615025  0.036671  2.266209  0.023  -1.1892  0.066931  -0.301562  -0.563139  0.047228  2.288304  0.032
O  O79  1  0.46524885  0.69243369  0.98501733  1  -0.65663  0.032877  2.025217  0.022  -0.584677  0.041583  2.278027  0.027  -0.614647  0.036458  2.264861  0.023  -1.184656  0.066627  -0.300506  -0.562891  0.047007  2.286991  0.032
O  O80  1  0.98655810  0.46464410  0.69280492  1  -0.657707  0.03337  2.032026  0.022  -0.584816  0.041748  2.284469  0.027  -0.615007  0.036588  2.271463  0.023  -1.186879  0.067131  -0.301344  -0.562864  0.047215  2.293286  0.032
O  O81  1  0.30823902  0.01361568  0.53333517  1  -0.656881  0.03309  2.025806  0.022  -0.585064  0.041806  2.279327  0.027  -0.615088  0.03667  2.266192  0.023  -1.189225  0.066934  -0.301548  -0.563205  0.047228  2.288286  0.032
O  O82  1  0.53475089  0.30756565  0.01498298  1  -0.65664  0.032884  2.025244  0.022  -0.584678  0.041583  2.278049  0.027  -0.614646  0.03646  2.264886  0.023  -1.184655  0.066628  -0.300506  -0.562896  0.047008  2.287016  0.032
O  O83  1  0.01344385  0.53535629  0.30719472  1  -0.657781  0.033376  2.032002  0.022  -0.58487  0.041747  2.28443  0.027  -0.615066  0.036587  2.27143  0.023  -1.186917  0.067135  -0.301364  -0.562918  0.047214  2.293251  0.032
O  O84  1  0.72908816  0.10086405  0.68277284  1  -0.668498  0.027983  2.068636  0.014  -0.599433  0.036939  2.338372  0.02  -0.628792  0.032544  2.3249  0.017  -1.219418  0.058009  -0.307679  -0.577803  0.041339  2.34711  0.024
O  O85  1  0.68293126  0.72960686  0.09882693  1  -0.669199  0.028301  2.069152  0.015  -0.600932  0.037417  2.340702  0.02  -0.63039  0.032978  2.326897  0.017  -1.216131  0.058712  -0.307648  -0.579242  0.041859  2.349726  0.024
O  O86  1  0.10113479  0.68232657  0.72902418  1  -0.667306  0.028193  2.068933  0.015  -0.598658  0.037243  2.338901  0.02  -0.628037  0.032824  2.325376  0.017  -1.211185  0.058364  -0.307548  -0.577033  0.041659  2.347748  0.024
O  O87  1  0.27091054  0.89913530  0.31722736  1  -0.668516  0.027972  2.068603  0.014  -0.59944  0.036939  2.338354  0.02  -0.628811  0.032547  2.324888  0.017  -1.219432  0.058013  -0.307673  -0.57781  0.04134  2.347092  0.024
O  O88  1  0.31706926  0.27039040  0.90117528  1  -0.669186  0.028311  2.069156  0.015  -0.600927  0.037418  2.340749  0.02  -0.630392  0.032978  2.326947  0.017  -1.216114  0.058721  -0.307659  -0.579238  0.041861  2.349767  0.024
O  O89  1  0.89886430  0.31767592  0.27097743  1  -0.667311  0.0282  2.06879  0.015  -0.598711  0.037243  2.338801  0.02  -0.628082  0.032822  2.325265  0.017  -1.21115  0.058363  -0.307564  -0.577088  0.041658  2.347651  0.024
O  O90  1  0.80956864  0.71667342  0.41330603  1  -0.64022  0.034127  2.059766  0.024  -0.569805  0.041005  2.321543  0.028  -0.600475  0.036011  2.310109  0.024  -1.1957  0.066125  -0.304312  -0.547798  0.046393  2.329236  0.033
O  O91  1  0.41238633  0.81047326  0.71725821  1  -0.637803  0.034348  2.066045  0.024  -0.567354  0.041006  2.328769  0.028  -0.598073  0.036052  2.317293  0.023  -1.202046  0.066369  -0.303714  -0.545221  0.046403  2.336429  0.033
O  O92  1  0.71815689  0.41235891  0.81082601  1  -0.638773  0.034592  2.063499  0.024  -0.568974  0.041223  2.328138  0.028  -0.599832  0.036214  2.316814  0.023  -1.204704  0.066888  -0.303965  -0.546755  0.04664  2.335726  0.033
O  O93  1  0.19043111  0.28332593  0.58669326  1  -0.640182  0.034122  2.059745  0.024  -0.569762  0.041004  2.321505  0.028  -0.600439  0.036011  2.31007  0.024  -1.195918  0.066126  -0.304298  -0.547757  0.046391  2.329197  0.033
O  O94  1  0.58761251  0.18952714  0.28274110  1  -0.637815  0.034338  2.066  0.024  -0.567347  0.041009  2.328714  0.028  -0.598065  0.03605  2.317241  0.023  -1.201993  0.066362  -0.30373  -0.545215  0.046404  2.336375  0.033
O  O95  1  0.28184610  0.58764148  0.18917272  1  -0.638713  0.034574  2.063657  0.024  -0.568969  0.04122  2.328208  0.028  -0.599799  0.036208  2.31684  0.023  -1.2047  0.06688  -0.303959  -0.546751  0.046635  2.335795  0.033
O  O96  1  0.01820700  0.84145386  0.49054277  1  -0.676977  0.030878  2.058888  0.017  -0.606434  0.03868  2.326022  0.021  -0.637747  0.034477  2.313041  0.018  -1.206385  0.059817  -0.307049  -0.583832  0.042022  2.334779  0.024
O  O97  1  0.48974386  0.01876918  0.84202224  1  -0.676519  0.030852  2.061186  0.017  -0.605206  0.038661  2.327462  0.021  -0.636264  0.034467  2.314078  0.018  -1.208798  0.059631  -0.306366  -0.582728  0.041992  2.336506  0.024
O  O98  1  0.84166552  0.49072653  0.01837008  1  -0.675735  0.030378  2.053611  0.017  -0.605627  0.038457  2.319862  0.021  -0.63652  0.034257  2.306776  0.018  -1.209094  0.059244  -0.306515  -0.583326  0.041865  2.328888  0.024
O  O99  1  0.98179183  0.15854654  0.50945755  1  -0.676981  0.030893  2.058864  0.017  -0.606445  0.038677  2.32598  0.021  -0.637761  0.034476  2.313005  0.018  -1.206381  0.059813  -0.307069  -0.583843  0.04202  2.334739  0.024
O  O100  1  0.51025718  0.98123227  0.15797947  1  -0.676488  0.030849  2.061196  0.017  -0.605191  0.038663  2.327515  0.021  -0.63624  0.034469  2.314117  0.018  -1.208774  0.059639  -0.306345  -0.582713  0.041995  2.336559  0.024
O  O101  1  0.15833539  0.50927387  0.98162842  1  -0.675646  0.03038  2.053549  0.017  -0.605614  0.038456  2.319743  0.021  -0.636519  0.034256  2.306662  0.018  -1.209043  0.059241  -0.306505  -0.583316  0.041865  2.328779  0.024
