# generated using pymatgen
data_NaH10AuC16(SN)6
_symmetry_space_group_name_H-M   'P 1'
_cell_length_a   8.36212932
_cell_length_b   10.07742390
_cell_length_c   13.09513137
_cell_angle_alpha   90.00005095
_cell_angle_beta   103.56916242
_cell_angle_gamma   89.99940735
_symmetry_Int_Tables_number   1
_chemical_formula_structural   NaH10AuC16(SN)6
_chemical_formula_sum   'Na2 H20 Au2 C32 S12 N12'
_cell_volume   1072.70817053
_cell_formula_units_Z   2
loop_
 _symmetry_equiv_pos_site_id
 _symmetry_equiv_pos_as_xyz
  1  'x, y, z'
loop_
 _atom_site_type_symbol
 _atom_site_label
 _atom_site_symmetry_multiplicity
 _atom_site_fract_x
 _atom_site_fract_y
 _atom_site_fract_z
 _atom_site_occupancy
 _atom_site_hle17_bader_spin_density
 _atom_site_hle17_ddec_charge
 _atom_site_hle17_ddec_spin_density
 _atom_site_hle17_ddec_sum_bond_order
 _atom_site_hle17_magmom
 _atom_site_hse06_10hf_bader_spin_density
 _atom_site_hse06_10hf_ddec_charge
 _atom_site_hse06_10hf_ddec_spin_density
 _atom_site_hse06_10hf_ddec_sum_bond_order
 _atom_site_hse06_10hf_magmom
 _atom_site_hse06_bader_spin_density
 _atom_site_hse06_ddec_charge
 _atom_site_hse06_ddec_spin_density
 _atom_site_hse06_ddec_sum_bond_order
 _atom_site_hse06_magmom
 _atom_site_pbe_bader_spin_density
 _atom_site_pbe_cm5_charge
 _atom_site_pbe_ddec_charge
 _atom_site_pbe_ddec_spin_density
 _atom_site_pbe_ddec_sum_bond_order
 _atom_site_pbe_magmom
Na  Na0  1  0.00000340  0.99999862  0.00000311  1  0  0.848836  0  0.472268  0  0  0.768585  0  0.67458  0  0  0.780736  0  0.653774  0  0  0.725914  0.759784  0  0.689447  0
Na  Na1  1  0.49999874  0.49999924  0.99999693  1  0  0.848823  0  0.472293  0  0  0.768569  0  0.674623  0  0  0.780714  0  0.653817  0  0  0.725905  0.759757  0  0.689488  0
H  H2  1  0.23075492  0.62062400  0.19187309  1  0  0.117068  0  0.954506  0  0  0.127518  0  1.016711  0  0  0.130789  0  1.015382  0  0  0.101713  0.12536  0  1.017294  0
H  H3  1  0.26923981  0.12062837  0.80812485  1  0  0.117111  0  0.954547  0  0  0.127557  0  1.016748  0  0  0.130826  0  1.015418  0  0  0.101717  0.125397  0  1.017335  0
H  H4  1  0.76924594  0.37937389  0.80812948  1  0  0.117062  0  0.954479  0  0  0.127504  0  1.0167  0  0  0.130776  0  1.015369  0  0  0.101696  0.125346  0  1.017283  0
H  H5  1  0.73074875  0.87937151  0.19187513  1  0  0.117128  0  0.954631  0  0  0.12756  0  1.016847  0  0  0.13083  0  1.015517  0  0  0.101694  0.125401  0  1.01743  0
H  H6  1  0.92889361  0.18808685  0.19496941  1  0  0.115261  0  0.961695  0  0  0.128714  0  1.018795  0  0  0.131158  0  1.018886  0  0  0.105613  0.127063  0  1.018552  0
H  H7  1  0.57111460  0.68809650  0.80503250  1  0  0.115231  0  0.961903  0  0  0.128732  0  1.018938  0  0  0.131177  0  1.01903  0  0  0.105613  0.12708  0  1.018695  0
H  H8  1  0.07110971  0.81191204  0.80503352  1  0  0.115229  0  0.961722  0  0  0.128692  0  1.018816  0  0  0.131138  0  1.018906  0  0  0.105587  0.127042  0  1.018573  0
H  H9  1  0.42889117  0.31190834  0.19496774  1  0  0.115266  0  0.961822  0  0  0.12873  0  1.018884  0  0  0.131177  0  1.018975  0  0  0.105612  0.127078  0  1.018639  0
H  H10  1  0.06171426  0.08332596  0.61506847  1  0  0.141128  0  0.963684  0  0  0.156036  0  1.028679  0  0  0.157869  0  1.029135  0  0  0.097277  0.154658  0  1.028426  0
H  H11  1  0.43828707  0.58332202  0.38492507  1  0  0.141124  0  0.963622  0  0  0.156047  0  1.028599  0  0  0.157879  0  1.02906  0  0  0.097314  0.15467  0  1.028339  0
H  H12  1  0.93828537  0.91667788  0.38493468  1  0  0.141113  0  0.963756  0  0  0.156023  0  1.028748  0  0  0.157862  0  1.0292  0  0  0.097288  0.154644  0  1.028495  0
H  H13  1  0.56171742  0.41667785  0.61506581  1  0  0.141125  0  0.963775  0  0  0.156049  0  1.028746  0  0  0.157886  0  1.029203  0  0  0.097306  0.154672  0  1.028488  0
H  H14  1  0.84386930  0.09174535  0.56300021  1  0  0.141213  0  0.945807  0  0  0.152482  0  1.019821  0  0  0.155725  0  1.016334  0  0  0.096371  0.1499  0  1.022638  0
H  H15  1  0.65613150  0.59173795  0.43699366  1  0  0.141259  0  0.945865  0  0  0.15255  0  1.01984  0  0  0.155792  0  1.016355  0  0  0.09638  0.149962  0  1.022659  0
H  H16  1  0.15612910  0.90825552  0.43700275  1  0  0.141293  0  0.945766  0  0  0.152545  0  1.019788  0  0  0.155787  0  1.0163  0  0  0.096387  0.149962  0  1.022603  0
H  H17  1  0.34387424  0.40825796  0.56300199  1  0  0.141278  0  0.94577  0  0  0.152538  0  1.019789  0  0  0.155779  0  1.016303  0  0  0.096402  0.149955  0  1.022607  0
H  H18  1  0.94026181  0.93445437  0.59817905  1  0  0.142204  0  0.956904  0  0  0.156822  0  1.023632  0  0  0.158549  0  1.02414  0  0  0.098706  0.155258  0  1.023721  0
H  H19  1  0.55973948  0.43444914  0.40181283  1  0  0.142222  0  0.956874  0  0  0.156801  0  1.023639  0  0  0.158535  0  1.024142  0  0  0.09869  0.155236  0  1.023728  0
H  H20  1  0.05974028  0.06554650  0.40182294  1  0  0.142222  0  0.956975  0  0  0.156857  0  1.023686  0  0  0.158575  0  1.024202  0  0  0.098711  0.155292  0  1.023776  0
H  H21  1  0.44026008  0.56554875  0.59817580  1  0  0.142189  0  0.956942  0  0  0.156811  0  1.02367  0  0  0.158541  0  1.024177  0  0  0.098694  0.155246  0  1.023758  0
Au  Au22  1  0.00000126  0.50000011  0.50000197  1  0  0.271243  0  3.389229  0  0  0.253305  0  4.000831  0  0  0.268871  0  3.979866  0  0  0.484781  0.243458  0  4.014048  0
Au  Au23  1  0.49999996  0.00000013  0.49999914  1  0  0.271303  0  3.389271  0  0  0.25341  0  4.0008  0  0  0.268957  0  3.979871  0  0  0.484805  0.24356  0  4.014022  0
C  C24  1  0.09600483  0.49438701  0.27559337  1  0  0.054039  0  3.802513  0  0  0.066612  0  4.05804  0  0  0.071086  0  4.079658  0  0  -0.015605  0.063475  0  4.043516  0
C  C25  1  0.40399492  0.99438477  0.72440478  1  0  0.05417  0  3.802387  0  0  0.06667  0  4.058016  0  0  0.071142  0  4.079632  0  0  -0.015634  0.063528  0  4.043503  0
C  C26  1  0.90399481  0.50561187  0.72440978  1  0  0.054174  0  3.802418  0  0  0.066738  0  4.057907  0  0  0.071214  0  4.079521  0  0  -0.015527  0.063597  0  4.043387  0
C  C27  1  0.59600717  0.00561411  0.27559720  1  0  0.054167  0  3.802483  0  0  0.066648  0  4.058071  0  0  0.07112  0  4.079687  0  0  -0.015651  0.063503  0  4.04356  0
C  C28  1  0.16660213  0.52669551  0.19257132  1  0  -0.21297  0  3.732411  0  0  -0.23825  0  3.987196  0  0  -0.2438  0  4.006084  0  0  -0.1089  -0.23378  0  3.973693  0
C  C29  1  0.33339134  0.02670429  0.80742485  1  0  -0.213087  0  3.732258  0  0  -0.238291  0  3.987  0  0  -0.243844  0  4.005887  0  0  -0.10886  -0.23382  0  3.9735  0
C  C30  1  0.83339504  0.47330436  0.80743147  1  0  -0.212984  0  3.732459  0  0  -0.238249  0  3.987227  0  0  -0.243813  0  4.006106  0  0  -0.108905  -0.233777  0  3.973727  0
C  C31  1  0.66660828  0.97329460  0.19257448  1  0  -0.213218  0  3.732418  0  0  -0.238432  0  3.987237  0  0  -0.243979  0  4.006131  0  0  -0.108909  -0.233965  0  3.973727  0
C  C32  1  0.01048589  0.37043805  0.27707430  1  0  0.060891  0  3.794184  0  0  0.074167  0  4.050888  0  0  0.07815  0  4.072083  0  0  -0.013431  0.070708  0  4.037075  0
C  C33  1  0.48951054  0.87044598  0.72292328  1  0  0.060889  0  3.794176  0  0  0.074188  0  4.050894  0  0  0.078177  0  4.072082  0  0  -0.013413  0.070729  0  4.037082  0
C  C34  1  0.98951621  0.62956282  0.72292845  1  0  0.06079  0  3.794284  0  0  0.074129  0  4.050906  0  0  0.078119  0  4.072093  0  0  -0.013423  0.070674  0  4.037086  0
C  C35  1  0.51049155  0.12955787  0.27707794  1  0  0.060728  0  3.79427  0  0  0.074128  0  4.050836  0  0  0.078117  0  4.072026  0  0  -0.013419  0.070664  0  4.037034  0
C  C36  1  0.06373968  0.31332888  0.10984484  1  0  0.192066  0  3.825142  0  0  0.189321  0  4.078688  0  0  0.193859  0  4.09807  0  0  0.103197  0.186242  0  4.065819  0
C  C37  1  0.43626243  0.81333449  0.89016042  1  0  0.19222  0  3.825025  0  0  0.189432  0  4.078651  0  0  0.193992  0  4.097995  0  0  0.103203  0.186351  0  4.065785  0
C  C38  1  0.93625995  0.68667199  0.89015678  1  0  0.192178  0  3.825123  0  0  0.189435  0  4.078669  0  0  0.193975  0  4.098039  0  0  0.103236  0.186354  0  4.065806  0
C  C39  1  0.56373842  0.18666439  0.10984062  1  0  0.192194  0  3.825073  0  0  0.189429  0  4.078696  0  0  0.193991  0  4.098056  0  0  0.103134  0.186341  0  4.065822  0
C  C40  1  0.99340302  0.28177916  0.19429573  1  0  -0.178606  0  3.681997  0  0  -0.204816  0  3.930537  0  0  -0.208696  0  3.948674  0  0  -0.101219  -0.202239  0  3.91849  0
C  C41  1  0.50660275  0.78178342  0.80570664  1  0  -0.178726  0  3.681862  0  0  -0.204958  0  3.930394  0  0  -0.208851  0  3.948525  0  0  -0.101255  -0.202378  0  3.918346  0
C  C42  1  0.00659785  0.71821773  0.80570913  1  0  -0.178609  0  3.682142  0  0  -0.204848  0  3.930655  0  0  -0.208739  0  3.948797  0  0  -0.101208  -0.20227  0  3.918606  0
C  C43  1  0.49339933  0.21822142  0.19429228  1  0  -0.178681  0  3.681863  0  0  -0.204901  0  3.930358  0  0  -0.208786  0  3.948475  0  0  -0.101215  -0.202319  0  3.91831  0
C  C44  1  0.15270825  0.43612575  0.10890438  1  0  0.181246  0  3.829399  0  0  0.179099  0  4.084231  0  0  0.184065  0  4.103704  0  0  0.097682  0.175554  0  4.07119  0
C  C45  1  0.34729227  0.93612915  0.89109843  1  0  0.181258  0  3.829568  0  0  0.179074  0  4.084464  0  0  0.184038  0  4.103929  0  0  0.09767  0.175531  0  4.07142  0
C  C46  1  0.84729261  0.56387016  0.89109819  1  0  0.181065  0  3.829604  0  0  0.1789  0  4.084473  0  0  0.183893  0  4.103908  0  0  0.097569  0.175351  0  4.071437  0
C  C47  1  0.65270613  0.06387171  0.10890148  1  0  0.181346  0  3.829543  0  0  0.17911  0  4.084495  0  0  0.18405  0  4.103994  0  0  0.097722  0.175589  0  4.071415  0
C  C48  1  0.91845541  0.05326704  0.72449846  1  0  0.41528  0  3.722675  0  0  0.40742  0  4.013692  0  0  0.42112  0  4.029284  0  0  0.198708  0.398134  0  4.002266  0
C  C49  1  0.58154834  0.55326505  0.27549277  1  0  0.415204  0  3.72297  0  0  0.407362  0  4.013941  0  0  0.421058  0  4.029537  0  0  0.198669  0.398073  0  4.002516  0
C  C50  1  0.08154547  0.94673185  0.27550640  1  0  0.415252  0  3.722574  0  0  0.407395  0  4.013595  0  0  0.421095  0  4.02919  0  0  0.198724  0.398106  0  4.00217  0
C  C51  1  0.41845737  0.44673483  0.72449601  1  0  0.415321  0  3.722732  0  0  0.407469  0  4.013742  0  0  0.42117  0  4.029337  0  0  0.198755  0.39818  0  4.00232  0
C  C52  1  0.94233566  0.04029034  0.61928061  1  0  -0.373041  0  3.75309  0  0  -0.441083  0  3.977553  0  0  -0.445001  0  3.981839  0  0  -0.220225  -0.438054  0  3.97492  0
C  C53  1  0.55766704  0.54028571  0.38071275  1  0  -0.373114  0  3.753116  0  0  -0.441178  0  3.977614  0  0  -0.445106  0  3.981888  0  0  -0.220297  -0.438147  0  3.974984  0
C  C54  1  0.05766521  0.95971152  0.38072195  1  0  -0.373187  0  3.753285  0  0  -0.441217  0  3.977738  0  0  -0.445134  0  3.982026  0  0  -0.220294  -0.438187  0  3.975106  0
C  C55  1  0.44233869  0.45971417  0.61927832  1  0  -0.373145  0  3.753238  0  0  -0.441166  0  3.977654  0  0  -0.445095  0  3.98193  0  0  -0.220322  -0.438139  0  3.975027  0
S  S56  1  0.92615565  0.32559235  0.38232705  1  0  -0.191462  0  2.289927  0  0  -0.185533  0  2.665023  0  0  -0.197739  0  2.664373  0  0  -0.149025  -0.176304  0  2.66536  0
S  S57  1  0.57383355  0.82559183  0.61767061  1  0  -0.19145  0  2.290107  0  0  -0.185538  0  2.665219  0  0  -0.197744  0  2.66457  0  0  -0.149026  -0.176302  0  2.665543  0
S  S58  1  0.07383782  0.67440852  0.61767366  1  0  -0.191358  0  2.289983  0  0  -0.185464  0  2.665075  0  0  -0.19767  0  2.664424  0  0  -0.149002  -0.176237  0  2.665408  0
S  S59  1  0.42616361  0.17441599  0.38232836  1  0  -0.19137  0  2.28992  0  0  -0.185501  0  2.66499  0  0  -0.197707  0  2.66434  0  0  -0.149015  -0.176268  0  2.665329  0
S  S60  1  0.15978271  0.31730518  0.95117614  1  0  0.489321  0  3.035524  0  0  0.474668  0  3.427988  0  0  0.487  0  3.431489  0  0  0.39726  0.465641  0  3.426137  0
S  S61  1  0.34021685  0.81730962  0.04882034  1  0  0.489359  0  3.035607  0  0  0.474704  0  3.428068  0  0  0.487037  0  3.431567  0  0  0.397278  0.465678  0  3.426215  0
S  S62  1  0.84021200  0.68269470  0.04882551  1  0  0.489294  0  3.035464  0  0  0.474654  0  3.427896  0  0  0.486988  0  3.431397  0  0  0.39726  0.465629  0  3.426043  0
S  S63  1  0.65978153  0.18268827  0.95117727  1  0  0.489396  0  3.035485  0  0  0.474755  0  3.427925  0  0  0.487087  0  3.431423  0  0  0.397319  0.465727  0  3.426076  0
S  S64  1  0.11291141  0.60938564  0.37730300  1  0  -0.198598  0  2.320976  0  0  -0.188435  0  2.695824  0  0  -0.201064  0  2.694301  0  0  -0.147453  -0.179947  0  2.696377  0
S  S65  1  0.38707607  0.10939174  0.62269156  1  0  -0.19872  0  2.320772  0  0  -0.188546  0  2.695645  0  0  -0.201174  0  2.694126  0  0  -0.147463  -0.180053  0  2.696205  0
S  S66  1  0.88709315  0.39061226  0.62270164  1  0  -0.198598  0  2.320883  0  0  -0.188436  0  2.695713  0  0  -0.201072  0  2.694207  0  0  -0.147457  -0.179946  0  2.696269  0
S  S67  1  0.61291618  0.89061210  0.37730896  1  0  -0.198611  0  2.320831  0  0  -0.188426  0  2.695708  0  0  -0.201053  0  2.694191  0  0  -0.147436  -0.179933  0  2.696265  0
N  N68  1  0.06028285  0.23748009  0.02402163  1  0  -0.486678  0  2.999554  0  0  -0.448737  0  3.2978  0  0  -0.45785  0  3.307021  0  0  -0.389481  -0.442308  0  3.291985  0
N  N69  1  0.43972022  0.73748776  0.97597991  1  0  -0.486758  0  2.999766  0  0  -0.44879  0  3.298021  0  0  -0.457908  0  3.307233  0  0  -0.389473  -0.442357  0  3.2922  0
N  N70  1  0.93971678  0.76251681  0.97598076  1  0  -0.486739  0  2.99957  0  0  -0.448795  0  3.297818  0  0  -0.457913  0  3.30704  0  0  -0.389501  -0.442366  0  3.292003  0
N  N71  1  0.56027817  0.26251211  0.02402000  1  0  -0.486798  0  2.999689  0  0  -0.448842  0  3.29795  0  0  -0.457958  0  3.307164  0  0  -0.389482  -0.442409  0  3.29213  0
N  N72  1  0.21496257  0.44892830  0.02253956  1  0  -0.463717  0  2.91224  0  0  -0.430076  0  3.208633  0  0  -0.439003  0  3.217386  0  0  -0.375624  -0.423854  0  3.203084  0
N  N73  1  0.28503653  0.94893334  0.97745694  1  0  -0.46371  0  2.912418  0  0  -0.430061  0  3.208821  0  0  -0.43899  0  3.217574  0  0  -0.375634  -0.423844  0  3.203274  0
N  N74  1  0.78503090  0.55107058  0.97745886  1  0  -0.463622  0  2.912352  0  0  -0.429973  0  3.208728  0  0  -0.43891  0  3.217473  0  0  -0.375579  -0.423751  0  3.203178  0
N  N75  1  0.71496186  0.05106554  0.02254373  1  0  -0.463702  0  2.912409  0  0  -0.430036  0  3.208828  0  0  -0.438957  0  3.217589  0  0  -0.375614  -0.423826  0  3.203274  0
N  N76  1  0.90392492  0.06098242  0.81064009  1  0  -0.50467  0  2.633601  0  0  -0.486885  0  2.884068  0  0  -0.501023  0  2.894033  0  0  -0.380911  -0.477132  0  2.876709  0
N  N77  1  0.59607753  0.56098219  0.18935630  1  0  -0.50457  0  2.633901  0  0  -0.486789  0  2.884359  0  0  -0.500926  0  2.894322  0  0  -0.380847  -0.477036  0  2.877002  0
N  N78  1  0.09608086  0.93901250  0.18936168  1  0  -0.504606  0  2.6334  0  0  -0.486804  0  2.883835  0  0  -0.500943  0  2.893804  0  0  -0.380897  -0.477052  0  2.876475  0
N  N79  1  0.40392453  0.43901571  0.81063804  1  0  -0.504672  0  2.63363  0  0  -0.486888  0  2.884089  0  0  -0.501027  0  2.894052  0  0  -0.380932  -0.477135  0  2.876731  0
