# generated using pymatgen
data_CdH16C22S2N10O
_symmetry_space_group_name_H-M   'P 1'
_cell_length_a   9.86116936
_cell_length_b   11.31406109
_cell_length_c   11.47903065
_cell_angle_alpha   82.28979321
_cell_angle_beta   81.08058295
_cell_angle_gamma   72.04223614
_symmetry_Int_Tables_number   1
_chemical_formula_structural   CdH16C22S2N10O
_chemical_formula_sum   'Cd2 H32 C44 S4 N20 O2'
_cell_volume   1198.49748335
_cell_formula_units_Z   2
loop_
 _symmetry_equiv_pos_site_id
 _symmetry_equiv_pos_as_xyz
  1  'x, y, z'
loop_
 _atom_site_type_symbol
 _atom_site_label
 _atom_site_symmetry_multiplicity
 _atom_site_fract_x
 _atom_site_fract_y
 _atom_site_fract_z
 _atom_site_occupancy
 _atom_site_hle17_bader_spin_density
 _atom_site_hle17_ddec_charge
 _atom_site_hle17_ddec_spin_density
 _atom_site_hle17_ddec_sum_bond_order
 _atom_site_hle17_magmom
 _atom_site_hse06_10hf_bader_spin_density
 _atom_site_hse06_10hf_ddec_charge
 _atom_site_hse06_10hf_ddec_spin_density
 _atom_site_hse06_10hf_ddec_sum_bond_order
 _atom_site_hse06_10hf_magmom
 _atom_site_hse06_bader_spin_density
 _atom_site_hse06_ddec_charge
 _atom_site_hse06_ddec_spin_density
 _atom_site_hse06_ddec_sum_bond_order
 _atom_site_hse06_magmom
 _atom_site_pbe_bader_spin_density
 _atom_site_pbe_cm5_charge
 _atom_site_pbe_ddec_charge
 _atom_site_pbe_ddec_spin_density
 _atom_site_pbe_ddec_sum_bond_order
 _atom_site_pbe_magmom
Cd  Cd0  1  0.74080726  0.97496880  0.59864095  1  0  0.950364  0  2.015146  0  0  0.779309  0  2.479428  0  0  0.821781  0  2.445605  0  0  0.718487  0.750777  0  2.500124  0
Cd  Cd1  1  0.25919332  0.02503163  0.40135932  1  0  0.950385  0  2.015128  0  0  0.779336  0  2.479413  0  0  0.821811  0  2.445582  0  0  0.718485  0.750805  0  2.500105  0
H  H2  1  0.59729504  0.19820726  0.97796870  1  0  0.095026  0  0.962968  0  0  0.101115  0  1.032018  0  0  0.104157  0  1.030369  0  0  0.100248  0.099116  0  1.032861  0
H  H3  1  0.40270349  0.80179318  0.02202923  1  0  0.094992  0  0.962959  0  0  0.101106  0  1.031992  0  0  0.10415  0  1.030339  0  0  0.100251  0.099106  0  1.032837  0
H  H4  1  0.44713512  0.19442201  0.82266717  1  0  0.091621  0  0.982485  0  0  0.096809  0  1.053396  0  0  0.099198  0  1.052656  0  0  0.098006  0.095129  0  1.054162  0
H  H5  1  0.55286176  0.80558030  0.17733246  1  0  0.091658  0  0.982509  0  0  0.096851  0  1.053404  0  0  0.099244  0  1.052654  0  0  0.098032  0.095173  0  1.054171  0
H  H6  1  0.38736179  0.37216682  0.66941051  1  0  0.098785  0  0.965914  0  0  0.106878  0  1.030679  0  0  0.109516  0  1.030184  0  0  0.100854  0.104985  0  1.031283  0
H  H7  1  0.61263611  0.62783548  0.33058725  1  0  0.098836  0  0.965893  0  0  0.106909  0  1.030678  0  0  0.109546  0  1.030184  0  0  0.100876  0.105015  0  1.031284  0
H  H8  1  0.62150389  0.56173611  0.82662565  1  0  0.101475  0  0.949594  0  0  0.110123  0  1.01532  0  0  0.113438  0  1.013419  0  0  0.103743  0.107567  0  1.017383  0
H  H9  1  0.37849627  0.43826247  0.17337493  1  0  0.101551  0  0.949555  0  0  0.110205  0  1.015266  0  0  0.113519  0  1.013367  0  0  0.103773  0.107646  0  1.01733  0
H  H10  1  0.42459538  0.55977454  0.56963505  1  0  0.100985  0  0.930495  0  0  0.109717  0  1.005112  0  0  0.111638  0  1.002913  0  0  0.117318  0.108397  0  1.006618  0
H  H11  1  0.57540622  0.44022589  0.43036508  1  0  0.101038  0  0.9305  0  0  0.109732  0  1.005133  0  0  0.111655  0  1.002933  0  0  0.117333  0.108414  0  1.006638  0
H  H12  1  0.35371308  0.65828099  0.68482424  1  0  0.104104  0  0.93214  0  0  0.116302  0  0.998898  0  0  0.116993  0  0.999048  0  0  0.119464  0.115716  0  0.998965  0
H  H13  1  0.64628749  0.34171945  0.31517690  1  0  0.104115  0  0.932134  0  0  0.116307  0  0.998888  0  0  0.117001  0  0.999037  0  0  0.119471  0.115723  0  0.998953  0
H  H14  1  0.48055794  0.81287358  0.71187751  1  0  0.106997  0  0.942633  0  0  0.115137  0  1.009078  0  0  0.117786  0  1.00561  0  0  0.138412  0.113175  0  1.011495  0
H  H15  1  0.51944294  0.18712592  0.28812372  1  0  0.106989  0  0.942675  0  0  0.115159  0  1.009092  0  0  0.117812  0  1.005617  0  0  0.138409  0.113199  0  1.011507  0
H  H16  1  0.84917592  0.68532861  0.47084807  1  0  0.091564  0  0.937808  0  0  0.101113  0  0.99936  0  0  0.102394  0  0.998896  0  0  0.13248  0.100173  0  0.999689  0
H  H17  1  0.15082434  0.31467276  0.52915299  1  0  0.091578  0  0.937837  0  0  0.10117  0  0.999345  0  0  0.102452  0  0.998879  0  0  0.132501  0.100229  0  0.999674  0
H  H18  1  0.81918866  0.67658410  0.01079869  1  0  0.106988  0  0.950562  0  0  0.113617  0  1.017789  0  0  0.117077  0  1.015894  0  0  0.106731  0.11107  0  1.01956  0
H  H19  1  0.18081048  0.32341448  0.98920115  1  0  0.106982  0  0.950585  0  0  0.113618  0  1.017802  0  0  0.117077  0  1.015908  0  0  0.106734  0.111068  0  1.019576  0
H  H20  1  0.88676864  0.92569575  0.13463615  1  0  0.094117  0  0.945645  0  0  0.104658  0  1.018691  0  0  0.10614  0  1.017144  0  0  0.108735  0.103213  0  1.020136  0
H  H21  1  0.11323214  0.07430096  0.86536460  1  0  0.094154  0  0.945622  0  0  0.104687  0  1.018667  0  0  0.106171  0  1.017114  0  0  0.108738  0.103239  0  1.020114  0
H  H22  1  0.03598187  0.86426465  0.02727343  1  0  0.098531  0  0.923679  0  0  0.112696  0  0.987226  0  0  0.113566  0  0.987034  0  0  0.118868  0.111911  0  0.987531  0
H  H23  1  0.96401798  0.13573486  0.97272793  1  0  0.098546  0  0.923755  0  0  0.112679  0  0.987323  0  0  0.113547  0  0.987131  0  0  0.118869  0.111895  0  0.987626  0
H  H24  1  0.06703871  0.75039666  0.25613909  1  0  0.091472  0  0.979187  0  0  0.097514  0  1.051073  0  0  0.100433  0  1.050205  0  0  0.090726  0.095144  0  1.052482  0
H  H25  1  0.93296383  0.24960096  0.74385868  1  0  0.091507  0  0.979176  0  0  0.097522  0  1.051083  0  0  0.100445  0  1.050208  0  0  0.090733  0.095153  0  1.052489  0
H  H26  1  0.09947506  0.53787746  0.35448965  1  0  0.089875  0  0.965053  0  0  0.097529  0  1.029333  0  0  0.100117  0  1.028903  0  0  0.098394  0.0957  0  1.029899  0
H  H27  1  0.90052614  0.46212110  0.64550817  1  0  0.089866  0  0.965023  0  0  0.097532  0  1.029302  0  0  0.100119  0  1.02887  0  0  0.098385  0.095702  0  1.029872  0
H  H28  1  0.98879138  0.39244541  0.28429842  1  0  0.109934  0  0.943218  0  0  0.119259  0  1.005097  0  0  0.122081  0  1.003756  0  0  0.107214  0.117361  0  1.005784  0
H  H29  1  0.01120745  0.60755410  0.71570133  1  0  0.10995  0  0.943217  0  0  0.119277  0  1.005097  0  0  0.122099  0  1.003756  0  0  0.107226  0.11738  0  1.005784  0
H  H30  1  0.53133053  0.98567114  0.88341767  1  0  0.093967  0  0.966452  0  0  0.098559  0  1.036562  0  0  0.101034  0  1.033898  0  0  0.131634  0.09665  0  1.038646  0
H  H31  1  0.46867046  0.01433116  0.11658317  1  0  0.093931  0  0.966472  0  0  0.098557  0  1.036552  0  0  0.101033  0  1.033884  0  0  0.13162  0.096647  0  1.038639  0
H  H32  1  0.98203962  0.87048815  0.81214411  1  0  0.124031  0  0.944744  0  0  0.126094  0  1.020106  0  0  0.12992  0  1.014657  0  0  0.140907  0.123167  0  1.024099  0
H  H33  1  0.01795993  0.12951229  0.18785716  1  0  0.124006  0  0.94479  0  0  0.126078  0  1.020144  0  0  0.129897  0  1.014703  0  0  0.140922  0.12315  0  1.02414  0
C  C34  1  0.70771217  0.37849961  0.00094521  1  0  0.348984  0  3.734776  0  0  0.314496  0  4.016035  0  0  0.331996  0  4.025767  0  0  0.218359  0.302461  0  4.010157  0
C  C35  1  0.29228912  0.62150175  0.99905397  1  0  0.348977  0  3.734752  0  0  0.314402  0  4.016147  0  0  0.331896  0  4.025887  0  0  0.218332  0.302369  0  4.010266  0
C  C36  1  0.61882768  0.38008991  0.91095141  1  0  -0.021804  0  3.83937  0  0  -0.001501  0  4.077507  0  0  -0.00575  0  4.100894  0  0  -0.014843  0.001425  0  4.062293  0
C  C37  1  0.38117187  0.61991054  0.08904899  1  0  -0.021881  0  3.83936  0  0  -0.001542  0  4.077498  0  0  -0.00579  0  4.100885  0  0  -0.014855  0.001384  0  4.062282  0
C  C38  1  0.56885468  0.27632291  0.91070630  1  0  -0.082405  0  3.706464  0  0  -0.107331  0  3.953157  0  0  -0.108304  0  3.973717  0  0  -0.086714  -0.106109  0  3.938634  0
C  C39  1  0.43114353  0.72367848  0.08929502  1  0  -0.082265  0  3.706386  0  0  -0.107211  0  3.953057  0  0  -0.108187  0  3.97362  0  0  -0.086685  -0.10599  0  3.938534  0
C  C40  1  0.48543678  0.27447644  0.82437136  1  0  -0.052868  0  3.759486  0  0  -0.064931  0  4.012125  0  0  -0.067462  0  4.033816  0  0  -0.090963  -0.063381  0  3.997995  0
C  C41  1  0.51456379  0.72552400  0.17562978  1  0  -0.052982  0  3.759591  0  0  -0.065043  0  4.012223  0  0  -0.067575  0  4.033919  0  0  -0.090998  -0.063495  0  3.998094  0
C  C42  1  0.45098007  0.37484685  0.73820376  1  0  -0.087455  0  3.688842  0  0  -0.109637  0  3.931644  0  0  -0.110862  0  3.951665  0  0  -0.08477  -0.108661  0  3.918889  0
C  C43  1  0.54901845  0.62515360  0.26179765  1  0  -0.087471  0  3.688904  0  0  -0.109631  0  3.931727  0  0  -0.110857  0  3.951749  0  0  -0.084788  -0.108655  0  3.918975  0
C  C44  1  0.49796312  0.47941416  0.73891819  1  0  0.075103  0  3.736104  0  0  0.096777  0  3.981778  0  0  0.095421  0  4.005793  0  0  -0.011299  0.097511  0  3.965507  0
C  C45  1  0.50203510  0.52058722  0.26108139  1  0  0.075158  0  3.73604  0  0  0.096772  0  3.981775  0  0  0.095418  0  4.005787  0  0  -0.011273  0.097507  0  3.965504  0
C  C46  1  0.58236257  0.48175348  0.82536106  1  0  -0.12854  0  3.688058  0  0  -0.167736  0  3.947263  0  0  -0.168662  0  3.967242  0  0  -0.090573  -0.167194  0  3.934785  0
C  C47  1  0.41763832  0.51824601  0.17463755  1  0  -0.128656  0  3.688066  0  0  -0.167831  0  3.947287  0  0  -0.168753  0  3.967258  0  0  -0.090632  -0.167289  0  3.934808  0
C  C48  1  0.45124193  0.58921040  0.64828587  1  0  -0.066303  0  3.654648  0  0  -0.146565  0  3.900273  0  0  -0.143146  0  3.911142  0  0  -0.041497  -0.148587  0  3.893069  0
C  C49  1  0.54875761  0.41079004  0.35171541  1  0  -0.066334  0  3.654629  0  0  -0.146536  0  3.900264  0  0  -0.143117  0  3.911132  0  0  -0.041493  -0.148562  0  3.893063  0
C  C50  1  0.56431860  0.75922849  0.65031650  1  0  0.171281  0  3.649561  0  0  0.093818  0  3.912329  0  0  0.107645  0  3.924526  0  0  0.161888  0.085292  0  3.90339  0
C  C51  1  0.43568198  0.24077194  0.34968203  1  0  0.171311  0  3.649657  0  0  0.093822  0  3.912422  0  0  0.107648  0  3.924622  0  0  0.161901  0.085294  0  3.903481  0
C  C52  1  0.74913523  0.69125556  0.52785140  1  0  0.201964  0  3.714871  0  0  0.151594  0  4.001433  0  0  0.162597  0  4.014762  0  0  0.145753  0.144402  0  3.992103  0
C  C53  1  0.25086596  0.30874301  0.47215165  1  0  0.201948  0  3.714883  0  0  0.151545  0  4.001439  0  0  0.162548  0  4.014773  0  0  0.145724  0.144353  0  3.992108  0
C  C54  1  0.83191675  0.44256573  0.10380573  1  0  0.346723  0  3.725449  0  0  0.312716  0  4.005826  0  0  0.330077  0  4.016083  0  0  0.220258  0.300575  0  3.999568  0
C  C55  1  0.16808290  0.55743750  0.89619254  1  0  0.346682  0  3.725444  0  0  0.312701  0  4.005812  0  0  0.330061  0  4.016068  0  0  0.220321  0.300562  0  3.99955  0
C  C56  1  0.89741431  0.52634739  0.14318729  1  0  -0.019972  0  3.834161  0  0  -0.000925  0  4.074453  0  0  -0.005271  0  4.09783  0  0  -0.012146  0.002064  0  4.059265  0
C  C57  1  0.10258966  0.47365210  0.85681267  1  0  -0.01998  0  3.8341  0  0  -0.000926  0  4.074384  0  0  -0.005271  0  4.097758  0  0  -0.012111  0.002061  0  4.059195  0
C  C58  1  0.88084112  0.64696654  0.08594039  1  0  -0.129447  0  3.69403  0  0  -0.16813  0  3.953231  0  0  -0.169055  0  3.973121  0  0  -0.088428  -0.167707  0  3.940686  0
C  C59  1  0.11915873  0.35303297  0.91405923  1  0  -0.129432  0  3.694067  0  0  -0.168112  0  3.95328  0  0  -0.169038  0  3.97317  0  0  -0.088446  -0.167688  0  3.94073  0
C  C60  1  0.94164245  0.72785116  0.12589984  1  0  0.079305  0  3.729022  0  0  0.103256  0  3.971313  0  0  0.1016  0  3.995928  0  0  -0.00897  0.104072  0  3.954639  0
C  C61  1  0.05835978  0.27214740  0.87409872  1  0  0.079285  0  3.728925  0  0  0.103199  0  3.971249  0  0  0.101543  0  3.995866  0  0  -0.009021  0.104014  0  3.954578  0
C  C62  1  0.92928535  0.85824311  0.06745749  1  0  -0.060498  0  3.651125  0  0  -0.140597  0  3.898257  0  0  -0.136938  0  3.908771  0  0  -0.042581  -0.142507  0  3.890905  0
C  C63  1  0.07071482  0.14175546  0.93254309  1  0  -0.060569  0  3.651212  0  0  -0.140623  0  3.898342  0  0  -0.136959  0  3.908851  0  0  -0.042581  -0.142538  0  3.890998  0
C  C64  1  0.01933689  0.68782738  0.22352349  1  0  -0.104075  0  3.716962  0  0  -0.128479  0  3.965002  0  0  -0.13022  0  3.98637  0  0  -0.087862  -0.126972  0  3.95142  0
C  C65  1  0.98066524  0.31216838  0.77647460  1  0  -0.104002  0  3.716794  0  0  -0.128359  0  3.964827  0  0  -0.130101  0  3.986194  0  0  -0.087767  -0.126851  0  3.951243  0
C  C66  1  0.03703761  0.56762863  0.27968059  1  0  -0.064838  0  3.775436  0  0  -0.074159  0  4.025499  0  0  -0.076956  0  4.047003  0  0  -0.091357  -0.07249  0  4.011396  0
C  C67  1  0.96296421  0.43236807  0.72031827  1  0  -0.064911  0  3.775413  0  0  -0.074249  0  4.025491  0  0  -0.077044  0  4.046992  0  0  -0.09141  -0.072581  0  4.011386  0
C  C68  1  0.97647528  0.48623288  0.24052791  1  0  -0.074762  0  3.685297  0  0  -0.099897  0  3.929169  0  0  -0.099962  0  3.948389  0  0  -0.080763  -0.099209  0  3.915567  0
C  C69  1  0.02352520  0.51376475  0.75947188  1  0  -0.074786  0  3.685275  0  0  -0.099926  0  3.92916  0  0  -0.099991  0  3.948377  0  0  -0.080819  -0.099239  0  3.915564  0
C  C70  1  0.64457149  0.95411554  0.89502120  1  0  0.190255  0  3.711566  0  0  0.140929  0  3.994665  0  0  0.151858  0  4.008313  0  0  0.142171  0.133881  0  3.985525  0
C  C71  1  0.35542846  0.04588676  0.10497977  1  0  0.190252  0  3.711595  0  0  0.140892  0  3.994701  0  0  0.15182  0  4.008351  0  0  0.142159  0.133843  0  3.985566  0
C  C72  1  0.87273296  0.89871919  0.85602301  1  0  0.17267  0  3.615769  0  0  0.09485  0  3.879544  0  0  0.109984  0  3.889207  0  0  0.164215  0.085378  0  3.872795  0
C  C73  1  0.12726628  0.10128219  0.14397818  1  0  0.172766  0  3.615901  0  0  0.094937  0  3.879675  0  0  0.110079  0  3.88933  0  0  0.16423  0.085458  0  3.87293  0
C  C74  1  0.38240407  0.04367570  0.64492571  1  0  0.283744  0  4.014618  0  0  0.264404  0  4.31735  0  0  0.285773  0  4.331434  0  0  0.138791  0.250369  0  4.30676  0
C  C75  1  0.61759302  0.95632289  0.35507266  1  0  0.283788  0  4.014393  0  0  0.264452  0  4.317119  0  0  0.285817  0  4.331206  0  0  0.138859  0.250416  0  4.306532  0
C  C76  1  0.08459319  0.83155010  0.51307900  1  0  0.290361  0  4.017626  0  0  0.273937  0  4.313689  0  0  0.29547  0  4.328372  0  0  0.138153  0.259365  0  4.303789  0
C  C77  1  0.91540727  0.16844756  0.48692776  1  0  0.290309  0  4.017663  0  0  0.273888  0  4.313733  0  0  0.295423  0  4.328419  0  0  0.138103  0.259315  0  4.303828  0
S  S78  1  0.22740998  0.79457923  0.41643359  1  0  -0.321321  0  2.171958  0  0  -0.289689  0  2.492869  0  0  -0.307202  0  2.489284  0  0  -0.137487  -0.277427  0  2.49433  0
S  S79  1  0.77258823  0.20542216  0.58356861  1  0  -0.321225  0  2.172077  0  0  -0.289586  0  2.492972  0  0  -0.307099  0  2.489391  0  0  -0.137421  -0.277328  0  2.494434  0
S  S80  1  0.23179690  0.01169522  0.64580175  1  0  -0.332002  0  2.157868  0  0  -0.299901  0  2.479942  0  0  -0.317771  0  2.474734  0  0  -0.136025  -0.28786  0  2.482545  0
S  S81  1  0.76820091  0.98830429  0.35419727  1  0  -0.332059  0  2.157704  0  0  -0.299956  0  2.479759  0  0  -0.317824  0  2.474555  0  0  -0.136082  -0.287922  0  2.482385  0
N  N82  1  0.75541490  0.28720022  0.08178259  1  0  -0.304096  0  2.92867  0  0  -0.287063  0  3.219503  0  0  -0.296192  0  3.230344  0  0  -0.238723  -0.280892  0  3.212569  0
N  N83  1  0.24458402  0.71280209  0.91821852  1  0  -0.30409  0  2.928605  0  0  -0.287022  0  3.21947  0  0  -0.29615  0  3.230314  0  0  -0.2387  -0.280851  0  3.212534  0
N  N84  1  0.83551693  0.32849218  0.14776488  1  0  -0.287508  0  2.950941  0  0  -0.265963  0  3.242583  0  0  -0.276382  0  3.254704  0  0  -0.226095  -0.2588  0  3.234492  0
N  N85  1  0.16448479  0.67151103  0.85223226  1  0  -0.287457  0  2.950768  0  0  -0.265916  0  3.242385  0  0  -0.276334  0  3.254502  0  0  -0.226143  -0.25876  0  3.234311  0
N  N86  1  0.83643508  0.89626872  0.97425569  1  0  0.045949  0  3.571768  0  0  0.166608  0  3.757755  0  0  0.155687  0  3.782142  0  0  -0.134546  0.172979  0  3.742369  0
N  N87  1  0.16356447  0.10373172  0.02574471  1  0  0.045855  0  3.571913  0  0  0.166505  0  3.757907  0  0  0.155585  0  3.782289  0  0  -0.134577  0.172901  0  3.742473  0
N  N88  1  0.75282514  0.93596943  0.80368734  1  0  -0.38933  0  3.20881  0  0  -0.319411  0  3.495751  0  0  -0.340565  0  3.510718  0  0  -0.348717  -0.305496  0  3.485267  0
N  N89  1  0.24717512  0.06403194  0.19631371  1  0  -0.389301  0  3.208813  0  0  -0.319369  0  3.495744  0  0  -0.340521  0  3.51071  0  0  -0.348686  -0.305455  0  3.485262  0
N  N90  1  0.55900060  0.65417775  0.61140331  1  0  0.051732  0  3.583839  0  0  0.17356  0  3.768449  0  0  0.163555  0  3.791648  0  0  -0.131547  0.179135  0  3.754272  0
N  N91  1  0.44099997  0.34582268  0.38859696  1  0  0.05173  0  3.583791  0  0  0.173545  0  3.768413  0  0  0.163535  0  3.791628  0  0  -0.131543  0.179121  0  3.754235  0
N  N92  1  0.68389899  0.78550385  0.59880987  1  0  -0.399866  0  3.206852  0  0  -0.329493  0  3.490441  0  0  -0.351645  0  3.508029  0  0  -0.347067  -0.314657  0  3.477802  0
N  N93  1  0.31610395  0.21449564  0.40119021  1  0  -0.399899  0  3.206944  0  0  -0.329536  0  3.490573  0  0  -0.351689  0  3.508163  0  0  -0.347078  -0.3147  0  3.47793  0
N  N94  1  0.49314239  0.06481384  0.64389003  1  0  -0.525203  0  2.839758  0  0  -0.471849  0  3.111059  0  0  -0.491238  0  3.118875  0  0  -0.392687  -0.458402  0  3.104717  0
N  N95  1  0.50685614  0.93518660  0.35610877  1  0  -0.525203  0  2.839733  0  0  -0.471859  0  3.111054  0  0  -0.491249  0  3.118867  0  0  -0.392703  -0.45841  0  3.104712  0
N  N96  1  0.98229942  0.85827062  0.58454847  1  0  -0.5347  0  2.860395  0  0  -0.482127  0  3.130531  0  0  -0.50276  0  3.137959  0  0  -0.396904  -0.468523  0  3.125544  0
N  N97  1  0.01770085  0.14173075  0.41545171  1  0  -0.534748  0  2.860326  0  0  -0.482186  0  3.130485  0  0  -0.502822  0  3.137914  0  0  -0.39691  -0.468584  0  3.125497  0
N  N98  1  0.69069066  0.93106049  0.00097980  1  0  -0.277213  0  2.856454  0  0  -0.272561  0  3.12131  0  0  -0.281096  0  3.134876  0  0  -0.221398  -0.266509  0  3.111888  0
N  N99  1  0.30930857  0.06894089  0.99902052  1  0  -0.277171  0  2.856431  0  0  -0.272511  0  3.121288  0  0  -0.281048  0  3.134858  0  0  -0.221387  -0.266466  0  3.111867  0
N  N100  1  0.67709077  0.60840934  0.53326101  1  0  -0.274792  0  2.842424  0  0  -0.27471  0  3.108801  0  0  -0.281754  0  3.120361  0  0  -0.21984  -0.269486  0  3.100556  0
N  N101  1  0.32290877  0.39159110  0.46673939  1  0  -0.274806  0  2.842384  0  0  -0.274721  0  3.108785  0  0  -0.281767  0  3.120352  0  0  -0.219858  -0.2695  0  3.100542  0
O  O102  1  0.75242154  0.48026431  0.00969110  1  0  -0.268942  0  2.309114  0  0  -0.190736  0  2.523351  0  0  -0.209764  0  2.528317  0  0  -0.098017  -0.177295  0  2.519939  0
O  O103  1  0.24758110  0.51973611  0.99030542  1  0  -0.26889  0  2.309081  0  0  -0.190718  0  2.523395  0  0  -0.209744  0  2.528376  0  0  -0.098009  -0.177273  0  2.519981  0
