# generated using pymatgen
data_CdH18C19(NO2)2
_symmetry_space_group_name_H-M   'P 1'
_cell_length_a   9.90544211
_cell_length_b   10.01859955
_cell_length_c   11.26713669
_cell_angle_alpha   66.42672444
_cell_angle_beta   86.87792001
_cell_angle_gamma   63.43311776
_symmetry_Int_Tables_number   1
_chemical_formula_structural   CdH18C19(NO2)2
_chemical_formula_sum   'Cd2 H36 C38 N4 O8'
_cell_volume   906.00293821
_cell_formula_units_Z   2
loop_
 _symmetry_equiv_pos_site_id
 _symmetry_equiv_pos_as_xyz
  1  'x, y, z'
loop_
 _atom_site_type_symbol
 _atom_site_label
 _atom_site_symmetry_multiplicity
 _atom_site_fract_x
 _atom_site_fract_y
 _atom_site_fract_z
 _atom_site_occupancy
 _atom_site_hle17_bader_spin_density
 _atom_site_hle17_ddec_charge
 _atom_site_hle17_ddec_spin_density
 _atom_site_hle17_ddec_sum_bond_order
 _atom_site_hle17_magmom
 _atom_site_hse06_10hf_bader_spin_density
 _atom_site_hse06_10hf_ddec_charge
 _atom_site_hse06_10hf_ddec_spin_density
 _atom_site_hse06_10hf_ddec_sum_bond_order
 _atom_site_hse06_10hf_magmom
 _atom_site_hse06_bader_spin_density
 _atom_site_hse06_ddec_charge
 _atom_site_hse06_ddec_spin_density
 _atom_site_hse06_ddec_sum_bond_order
 _atom_site_hse06_magmom
 _atom_site_pbe_bader_spin_density
 _atom_site_pbe_cm5_charge
 _atom_site_pbe_ddec_charge
 _atom_site_pbe_ddec_spin_density
 _atom_site_pbe_ddec_sum_bond_order
 _atom_site_pbe_magmom
Cd  Cd0  1  0.92886480  0.83483656  0.58805909  1  0  1.116471  0  1.654461  0  0  0.917523  0  2.096416  0  0  0.980256  0  2.045045  0  0  0.762483  0.872754  0  2.131546  0
Cd  Cd1  1  0.07113180  0.16516485  0.41194004  1  0  1.116496  0  1.654414  0  0  0.917545  0  2.09636  0  0  0.980279  0  2.044988  0  0  0.762495  0.872777  0  2.131489  0
H  H2  1  0.21726185  0.75676553  0.42723385  1  0  0.095682  0  0.94797  0  0  0.1026  0  1.014144  0  0  0.105667  0  1.010641  0  0  0.120283  0.09996  0  1.017062  0
H  H3  1  0.78273826  0.24323710  0.57277356  1  0  0.095635  0  0.948009  0  0  0.102572  0  1.014173  0  0  0.105636  0  1.010673  0  0  0.120283  0.099934  0  1.017088  0
H  H4  1  0.31692475  0.64058961  0.26065245  1  0  0.099446  0  0.94389  0  0  0.115063  0  0.993913  0  0  0.117736  0  0.993692  0  0  0.109318  0.112565  0  0.994968  0
H  H5  1  0.68307687  0.35940442  0.73935357  1  0  0.099501  0  0.943847  0  0  0.115138  0  0.993856  0  0  0.117814  0  0.993625  0  0  0.109332  0.11264  0  0.994908  0
H  H6  1  0.16107202  0.54882836  0.17275438  1  0  0.128273  0  0.916686  0  0  0.140764  0  0.970622  0  0  0.144497  0  0.967192  0  0  0.12206  0.137646  0  0.97374  0
H  H7  1  0.83893163  0.45116564  0.82725422  1  0  0.12833  0  0.91675  0  0  0.140835  0  0.970653  0  0  0.14454  0  0.96726  0  0  0.12209  0.137714  0  0.973772  0
H  H8  1  0.92460134  0.52291099  0.16645507  1  0  0.137149  0  0.925821  0  0  0.148639  0  0.978008  0  0  0.1523  0  0.975903  0  0  0.12081  0.145918  0  0.979704  0
H  H9  1  0.07539572  0.47708679  0.83354713  1  0  0.137159  0  0.925781  0  0  0.148652  0  0.977976  0  0  0.152314  0  0.975869  0  0  0.120814  0.145931  0  0.979671  0
H  H10  1  0.67564484  0.56403917  0.24052083  1  0  0.1055  0  0.934446  0  0  0.118261  0  0.98941  0  0  0.121389  0  0.988217  0  0  0.10785  0.115447  0  0.991444  0
H  H11  1  0.32434923  0.43596595  0.75947619  1  0  0.105489  0  0.934447  0  0  0.118266  0  0.989392  0  0  0.121397  0  0.988197  0  0  0.107868  0.115454  0  0.991427  0
H  H12  1  0.47621469  0.67056843  0.37355354  1  0  0.093554  0  0.946646  0  0  0.106747  0  1.005864  0  0  0.109154  0  1.004302  0  0  0.10895  0.104739  0  1.007683  0
H  H13  1  0.52377743  0.32944397  0.62643650  1  0  0.093582  0  0.946651  0  0  0.106784  0  1.005849  0  0  0.109187  0  1.004296  0  0  0.108966  0.104777  0  1.007665  0
H  H14  1  0.39893106  0.79087835  0.53806427  1  0  0.117089  0  0.971543  0  0  0.125605  0  1.03304  0  0  0.129077  0  1.031854  0  0  0.10757  0.122717  0  1.034759  0
H  H15  1  0.60106147  0.20912559  0.46193236  1  0  0.117078  0  0.97146  0  0  0.125596  0  1.032978  0  0  0.129061  0  1.031794  0  0  0.107543  0.122678  0  1.034729  0
H  H16  1  0.58738791  0.84351893  0.63053074  1  0  0.083047  0  0.941306  0  0  0.091658  0  1.003933  0  0  0.093924  0  1.002397  0  0  0.118515  0.089932  0  1.005244  0
H  H17  1  0.41260964  0.15647519  0.36947276  1  0  0.083114  0  0.941268  0  0  0.091728  0  1.003878  0  0  0.093994  0  1.002341  0  0  0.118535  0.09  0  1.005192  0
H  H18  1  0.32116596  0.93283257  0.70535690  1  0  0.083972  0  0.9525  0  0  0.097632  0  1.0184  0  0  0.099149  0  1.018695  0  0  0.087746  0.096605  0  1.018096  0
H  H19  1  0.67884089  0.06716359  0.29463923  1  0  0.083967  0  0.952483  0  0  0.097594  0  1.018434  0  0  0.099108  0  1.018731  0  0  0.087751  0.096567  0  1.018129  0
H  H20  1  0.39344501  0.72904170  0.82970641  1  0  0.097134  0  0.913695  0  0  0.116617  0  0.964365  0  0  0.118682  0  0.963618  0  0  0.098681  0.115141  0  0.965011  0
H  H21  1  0.60655825  0.27095335  0.17028940  1  0  0.097148  0  0.913724  0  0  0.11664  0  0.964384  0  0  0.118703  0  0.963638  0  0  0.09869  0.115163  0  0.965032  0
H  H22  1  0.18193341  0.81657802  0.95296026  1  0  0.064547  0  0.932354  0  0  0.084371  0  0.990647  0  0  0.085196  0  0.990925  0  0  0.088274  0.083644  0  0.990765  0
H  H23  1  0.81807593  0.18341447  0.04704152  1  0  0.064527  0  0.932383  0  0  0.084349  0  0.990631  0  0  0.085185  0  0.990894  0  0  0.088273  0.083618  0  0.990752  0
H  H24  1  0.09339685  0.01668274  0.82790022  1  0  0.062144  0  0.945052  0  0  0.080543  0  1.007372  0  0  0.080553  0  1.009784  0  0  0.085708  0.080239  0  1.006427  0
H  H25  1  0.90660994  0.98331106  0.17210209  1  0  0.062135  0  0.945122  0  0  0.080509  0  1.007421  0  0  0.080508  0  1.009858  0  0  0.085722  0.080211  0  1.006459  0
H  H26  1  0.40860184  0.85558602  0.98995880  1  0  0.052085  0  0.933935  0  0  0.075404  0  0.988751  0  0  0.07564  0  0.989543  0  0  0.084053  0.074803  0  0.989006  0
H  H27  1  0.59140652  0.14441135  0.01004037  1  0  0.052098  0  0.933916  0  0  0.075431  0  0.988714  0  0  0.075667  0  0.989506  0  0  0.084068  0.074832  0  0.988968  0
H  H28  1  0.32277455  0.05326640  0.86081388  1  0  0.047823  0  0.963927  0  0  0.06516  0  1.032172  0  0  0.064845  0  1.034782  0  0  0.078291  0.065391  0  1.030298  0
H  H29  1  0.67723125  0.94672984  0.13918582  1  0  0.047855  0  0.963883  0  0  0.065188  0  1.032123  0  0  0.064875  0  1.034729  0  0  0.078301  0.065414  0  1.030251  0
H  H30  1  0.19042631  0.94179546  0.11374572  1  0  0.058326  0  0.960028  0  0  0.073711  0  1.028663  0  0  0.074348  0  1.029599  0  0  0.08293  0.073199  0  1.028269  0
H  H31  1  0.80958308  0.05819941  0.88625164  1  0  0.058302  0  0.960064  0  0  0.073728  0  1.028697  0  0  0.074364  0  1.029638  0  0  0.082928  0.073216  0  1.028304  0
H  H32  1  0.10089314  0.13825767  0.98364240  1  0  0.057772  0  0.943256  0  0  0.079088  0  1.001168  0  0  0.079071  0  1.002774  0  0  0.08514  0.078836  0  1.000597  0
H  H33  1  0.89911059  0.86173374  0.01635559  1  0  0.057822  0  0.943172  0  0  0.079183  0  1.001085  0  0  0.079168  0  1.002687  0  0  0.085158  0.078939  0  1.000503  0
H  H34  1  0.41890458  0.98604817  0.13658446  1  0  0.084848  0  0.94128  0  0  0.100755  0  1.004252  0  0  0.102114  0  1.004593  0  0  0.090197  0.099429  0  1.004616  0
H  H35  1  0.58109610  0.01395559  0.86341808  1  0  0.084831  0  0.9413  0  0  0.100764  0  1.004209  0  0  0.102123  0  1.004551  0  0  0.090207  0.099447  0  1.004571  0
H  H36  1  0.31528482  0.19206941  0.01734181  1  0  0.086997  0  0.947512  0  0  0.100778  0  1.01119  0  0  0.102374  0  1.010882  0  0  0.088883  0.099453  0  1.01171  0
H  H37  1  0.68471485  0.80793190  0.98265722  1  0  0.086978  0  0.947556  0  0  0.100752  0  1.011217  0  0  0.102347  0  1.010912  0  0  0.088876  0.099432  0  1.011734  0
C  C38  1  0.15467969  0.71474936  0.38679571  1  0  0.150614  0  3.684439  0  0  0.11333  0  3.94993  0  0  0.123574  0  3.964521  0  0  0.057951  0.106736  0  3.939752  0
C  C39  1  0.84531734  0.28525338  0.61321180  1  0  0.150705  0  3.684375  0  0  0.113374  0  3.949912  0  0  0.123621  0  3.964501  0  0  0.057949  0.10678  0  3.939735  0
C  C40  1  0.20828676  0.65131469  0.29283185  1  0  -0.123314  0  3.748488  0  0  -0.139392  0  4.014297  0  0  -0.146328  0  4.034451  0  0  -0.081318  -0.134285  0  3.999809  0
C  C41  1  0.79171332  0.34868310  0.70717732  1  0  -0.123394  0  3.748531  0  0  -0.139503  0  4.014399  0  0  -0.146436  0  4.034542  0  0  -0.081296  -0.134396  0  3.99991  0
C  C42  1  0.12248333  0.60305615  0.24291686  1  0  -0.029908  0  3.648866  0  0  -0.059232  0  3.90374  0  0  -0.055479  0  3.91929  0  0  -0.051984  -0.06198  0  3.893365  0
C  C43  1  0.87751728  0.39694280  0.75709008  1  0  -0.029828  0  3.648889  0  0  -0.059206  0  3.903696  0  0  -0.055431  0  3.919253  0  0  -0.051973  -0.061954  0  3.893333  0
C  C44  1  0.98062612  0.62220519  0.28529030  1  0  0.027923  0  3.773536  0  0  0.043658  0  4.009343  0  0  0.040968  0  4.033312  0  0  0.002862  0.045834  0  3.99288  0
C  C45  1  0.01937249  0.37779622  0.71471318  1  0  0.027753  0  3.77367  0  0  0.043654  0  4.009277  0  0  0.040965  0  4.03324  0  0  0.002788  0.045828  0  3.992812  0
C  C46  1  0.88457893  0.57757348  0.23612453  1  0  -0.092596  0  3.708356  0  0  -0.114673  0  3.965307  0  0  -0.116962  0  3.985405  0  0  -0.072667  -0.112936  0  3.950732  0
C  C47  1  0.11542075  0.42242782  0.76387362  1  0  -0.092628  0  3.708452  0  0  -0.114767  0  3.965372  0  0  -0.117056  0  3.985468  0  0  -0.072681  -0.113026  0  3.950797  0
C  C48  1  0.74671543  0.60076354  0.27743441  1  0  -0.09834  0  3.739111  0  0  -0.123229  0  3.999025  0  0  -0.12647  0  4.020735  0  0  -0.081807  -0.119636  0  3.983262  0
C  C49  1  0.25328225  0.39924265  0.72256028  1  0  -0.098271  0  3.739107  0  0  -0.123164  0  3.999037  0  0  -0.126405  0  4.020748  0  0  -0.081795  -0.119568  0  3.983277  0
C  C50  1  0.69508182  0.66924131  0.37083531  1  0  0.019321  0  3.809162  0  0  0.034383  0  4.04477  0  0  0.032177  0  4.069554  0  0  -0.003404  0.034778  0  4.027697  0
C  C51  1  0.30491125  0.33076625  0.62915998  1  0  0.019416  0  3.809173  0  0  0.034432  0  4.04482  0  0  0.032226  0  4.069605  0  0  -0.003364  0.034818  0  4.027765  0
C  C52  1  0.55232731  0.69866355  0.41418888  1  0  -0.03847  0  3.689546  0  0  -0.063768  0  3.940026  0  0  -0.061419  0  3.95789  0  0  -0.060452  -0.064923  0  3.927503  0
C  C53  1  0.44766424  0.30134527  0.58580514  1  0  -0.038592  0  3.689619  0  0  -0.063887  0  3.940125  0  0  -0.061538  0  3.957986  0  0  -0.060517  -0.065039  0  3.927598  0
C  C54  1  0.51028256  0.76332535  0.50593344  1  0  -0.117839  0  3.718658  0  0  -0.133719  0  3.976505  0  0  -0.139993  0  3.997034  0  0  -0.08465  -0.12886  0  3.962033  0
C  C55  1  0.48970743  0.23668233  0.49406284  1  0  -0.117781  0  3.718716  0  0  -0.133674  0  3.976564  0  0  -0.139941  0  3.997091  0  0  -0.084606  -0.128792  0  3.962107  0
C  C56  1  0.61281073  0.79748932  0.55495303  1  0  0.145141  0  3.706294  0  0  0.111958  0  3.966744  0  0  0.119739  0  3.984435  0  0  0.056398  0.106827  0  3.953825  0
C  C57  1  0.38718333  0.20251338  0.44504486  1  0  0.145011  0  3.706505  0  0  0.11184  0  3.966935  0  0  0.11962  0  3.984625  0  0  0.056349  0.10671  0  3.954007  0
C  C58  1  0.78925623  0.71176691  0.42385612  1  0  0.127807  0  3.760632  0  0  0.122093  0  3.998234  0  0  0.126208  0  4.020849  0  0  0.116057  0.118524  0  3.983047  0
C  C59  1  0.21073881  0.28823335  0.57614439  1  0  0.127707  0  3.760715  0  0  0.122022  0  3.998315  0  0  0.126137  0  4.020931  0  0  0.11604  0.118454  0  3.98313  0
C  C60  1  0.93482678  0.68794713  0.37996907  1  0  0.127369  0  3.750439  0  0  0.12032  0  3.987023  0  0  0.124881  0  4.010104  0  0  0.116764  0.117629  0  3.971671  0
C  C61  1  0.06517181  0.31204939  0.62003352  1  0  0.127435  0  3.750641  0  0  0.120327  0  3.987176  0  0  0.124888  0  4.010261  0  0  0.116766  0.117638  0  3.971823  0
C  C62  1  0.18672510  0.81235618  0.70884328  1  0  0.684407  0  3.863322  0  0  0.638956  0  4.159791  0  0  0.67293  0  4.153806  0  0  0.193997  0.615765  0  4.162689  0
C  C63  1  0.81327663  0.18764505  0.29115480  1  0  0.684414  0  3.863421  0  0  0.63895  0  4.159914  0  0  0.672926  0  4.153923  0  0  0.193962  0.615759  0  4.16281  0
C  C64  1  0.28822005  0.84473608  0.77808615  1  0  -0.25437  0  3.681466  0  0  -0.293673  0  3.938311  0  0  -0.299124  0  3.946083  0  0  -0.168031  -0.289774  0  3.932384  0
C  C65  1  0.71178218  0.15526393  0.22191324  1  0  -0.254351  0  3.681543  0  0  -0.29369  0  3.938398  0  0  -0.299137  0  3.946165  0  0  -0.168051  -0.289792  0  3.932471  0
C  C66  1  0.20588225  0.91083222  0.87709671  1  0  -0.079068  0  3.680743  0  0  -0.118294  0  3.94195  0  0  -0.118605  0  3.956158  0  0  -0.164412  -0.117819  0  3.932016  0
C  C67  1  0.79412558  0.08916398  0.12290469  1  0  -0.079095  0  3.680956  0  0  -0.118201  0  3.941967  0  0  -0.118521  0  3.956171  0  0  -0.164423  -0.117721  0  3.932034  0
C  C68  1  0.29671043  0.96214465  0.93877070  1  0  -0.106438  0  3.710152  0  0  -0.146028  0  3.973228  0  0  -0.147136  0  3.989031  0  0  -0.169662  -0.144879  0  3.961764  0
C  C69  1  0.70329637  0.03785404  0.06123162  1  0  -0.106504  0  3.710152  0  0  -0.146102  0  3.973212  0  0  -0.147212  0  3.989018  0  0  -0.169689  -0.144951  0  3.961748  0
C  C70  1  0.21355766  0.03336817  0.03387103  1  0  -0.08231  0  3.694181  0  0  -0.120952  0  3.952065  0  0  -0.121223  0  3.966536  0  0  -0.168502  -0.120459  0  3.941771  0
C  C71  1  0.78644863  0.96662684  0.96612909  1  0  -0.082271  0  3.694035  0  0  -0.121087  0  3.952074  0  0  -0.121358  0  3.966551  0  0  -0.168509  -0.120593  0  3.94179  0
C  C72  1  0.30327449  0.08881187  0.09298882  1  0  -0.251778  0  3.680715  0  0  -0.289281  0  3.930393  0  0  -0.294909  0  3.939284  0  0  -0.169441  -0.285243  0  3.924305  0
C  C73  1  0.69672565  0.91118581  0.90701328  1  0  -0.25178  0  3.680706  0  0  -0.289214  0  3.930333  0  0  -0.294847  0  3.939231  0  0  -0.169457  -0.2852  0  3.924271  0
C  C74  1  0.22862354  0.13746134  0.20067707  1  0  0.683821  0  3.871891  0  0  0.64504  0  4.159318  0  0  0.678835  0  4.153563  0  0  0.189071  0.622164  0  4.161574  0
C  C75  1  0.77137865  0.86253380  0.79932319  1  0  0.683729  0  3.872078  0  0  0.64493  0  4.159508  0  0  0.678726  0  4.153754  0  0  0.189033  0.622059  0  4.16177  0
N  N76  1  0.02302776  0.73058933  0.42983165  1  0  -0.357531  0  3.261072  0  0  -0.286731  0  3.528104  0  0  -0.308163  0  3.548582  0  0  -0.322857  -0.273081  0  3.514803  0
N  N77  1  0.97696983  0.26941208  0.57017010  1  0  -0.357595  0  3.261135  0  0  -0.286771  0  3.52818  0  0  -0.308205  0  3.54866  0  0  -0.322867  -0.273122  0  3.514881  0
N  N78  1  0.74677576  0.77431070  0.51407580  1  0  -0.3619  0  3.266107  0  0  -0.295089  0  3.531412  0  0  -0.314255  0  3.55085  0  0  -0.320195  -0.280987  0  3.517362  0
N  N79  1  0.25321877  0.22568834  0.48592340  1  0  -0.361794  0  3.266209  0  0  -0.294981  0  3.53147  0  0  -0.31415  0  3.550908  0  0  -0.320147  -0.280879  0  3.517416  0
O  O80  1  0.13806129  0.71245721  0.77516177  1  0  -0.621251  0  1.926826  0  0  -0.564283  0  2.152704  0  0  -0.591841  0  2.144811  0  0  -0.323972  -0.54513  0  2.157133  0
O  O81  1  0.86193842  0.28754650  0.22483461  1  0  -0.621237  0  1.926898  0  0  -0.564271  0  2.152771  0  0  -0.591831  0  2.144877  0  0  -0.323949  -0.545118  0  2.157199  0
O  O82  1  0.14832371  0.89218789  0.58300625  1  0  -0.698576  0  2.038794  0  0  -0.617849  0  2.299754  0  0  -0.650246  0  2.287704  0  0  -0.34636  -0.594855  0  2.307186  0
O  O83  1  0.85167648  0.10780972  0.41699055  1  0  -0.698575  0  2.038798  0  0  -0.617833  0  2.299754  0  0  -0.650226  0  2.2877  0  0  -0.346345  -0.594831  0  2.307165  0
O  O84  1  0.21025406  0.02476855  0.29719863  1  0  -0.671058  0  1.971126  0  0  -0.599296  0  2.217874  0  0  -0.632289  0  2.211168  0  0  -0.349409  -0.575645  0  2.221659  0
O  O85  1  0.78974306  0.97523405  0.70280005  1  0  -0.67106  0  1.971122  0  0  -0.599296  0  2.217863  0  0  -0.632296  0  2.211168  0  0  -0.349423  -0.575646  0  2.221647  0
O  O86  1  0.18795312  0.27907132  0.19419835  1  0  -0.653541  0  1.893677  0  0  -0.605202  0  2.115306  0  0  -0.630868  0  2.105675  0  0  -0.341738  -0.586224  0  2.120966  0
O  O87  1  0.81204552  0.72092758  0.80580071  1  0  -0.653437  0  1.893864  0  0  -0.605104  0  2.115511  0  0  -0.630761  0  2.105876  0  0  -0.341674  -0.58612  0  2.121164  0
