# generated using pymatgen
data_ZnH9C15N2Cl3O4
_symmetry_space_group_name_H-M   'P 1'
_cell_length_a   9.00062892
_cell_length_b   11.54381449
_cell_length_c   16.93221966
_cell_angle_alpha   109.60520807
_cell_angle_beta   89.99994643
_cell_angle_gamma   89.99992436
_symmetry_Int_Tables_number   1
_chemical_formula_structural   ZnH9C15N2Cl3O4
_chemical_formula_sum   'Zn4 H36 C60 N8 Cl12 O16'
_cell_volume   1657.29347379
_cell_formula_units_Z   4
loop_
 _symmetry_equiv_pos_site_id
 _symmetry_equiv_pos_as_xyz
  1  'x, y, z'
loop_
 _atom_site_type_symbol
 _atom_site_label
 _atom_site_symmetry_multiplicity
 _atom_site_fract_x
 _atom_site_fract_y
 _atom_site_fract_z
 _atom_site_occupancy
 _atom_site_hle17_bader_spin_density
 _atom_site_hle17_ddec_charge
 _atom_site_hle17_ddec_spin_density
 _atom_site_hle17_ddec_sum_bond_order
 _atom_site_hle17_magmom
 _atom_site_hse06_10hf_bader_spin_density
 _atom_site_hse06_10hf_ddec_charge
 _atom_site_hse06_10hf_ddec_spin_density
 _atom_site_hse06_10hf_ddec_sum_bond_order
 _atom_site_hse06_10hf_magmom
 _atom_site_hse06_bader_spin_density
 _atom_site_hse06_ddec_charge
 _atom_site_hse06_ddec_spin_density
 _atom_site_hse06_ddec_sum_bond_order
 _atom_site_hse06_magmom
 _atom_site_pbe_bader_spin_density
 _atom_site_pbe_cm5_charge
 _atom_site_pbe_ddec_charge
 _atom_site_pbe_ddec_spin_density
 _atom_site_pbe_ddec_sum_bond_order
 _atom_site_pbe_magmom
Zn  Zn0  1  0.74483544  0.80023350  0.82299564  1  0  1.060083  0  1.803096  0  0  0.873116  0  2.273642  0  0  0.922493  0  2.215792  0  0  0.692032  0.838653  0  2.313541  0
Zn  Zn1  1  0.75516669  0.30023322  0.32299551  1  0  1.060152  0  1.803035  0  0  0.873157  0  2.273581  0  0  0.92254  0  2.21573  0  0  0.692047  0.838698  0  2.313482  0
Zn  Zn2  1  0.25516518  0.19976633  0.17700360  1  0  1.060084  0  1.803089  0  0  0.873118  0  2.273641  0  0  0.922494  0  2.215791  0  0  0.692023  0.838657  0  2.313561  0
Zn  Zn3  1  0.24483393  0.69976569  0.67700470  1  0  1.060112  0  1.803104  0  0  0.87314  0  2.273654  0  0  0.922516  0  2.215804  0  0  0.692043  0.83868  0  2.313561  0
H  H4  1  0.27294634  0.57099352  0.87891624  1  0  0.089687  0  0.991917  0  0  0.091723  0  1.068631  0  0  0.094858  0  1.066631  0  0  0.090303  0.089383  0  1.070165  0
H  H5  1  0.22705596  0.07099236  0.37891534  1  0  0.089643  0  0.991935  0  0  0.091675  0  1.068663  0  0  0.094811  0  1.066662  0  0  0.090273  0.089335  0  1.070198  0
H  H6  1  0.72705650  0.42900815  0.12108460  1  0  0.08965  0  0.991905  0  0  0.091677  0  1.068643  0  0  0.094813  0  1.066639  0  0  0.090278  0.089337  0  1.070185  0
H  H7  1  0.77294132  0.92900839  0.62108470  1  0  0.08971  0  0.991884  0  0  0.091718  0  1.068631  0  0  0.094852  0  1.066628  0  0  0.090278  0.089376  0  1.070174  0
H  H8  1  0.29058367  0.53588129  0.01600336  1  0  0.086065  0  0.965203  0  0  0.092281  0  1.03235  0  0  0.094996  0  1.031794  0  0  0.089271  0.090086  0  1.033383  0
H  H9  1  0.20941710  0.03588097  0.51600292  1  0  0.086062  0  0.965232  0  0  0.09228  0  1.032372  0  0  0.094995  0  1.031816  0  0  0.089269  0.090082  0  1.033414  0
H  H10  1  0.70941695  0.46411854  0.98399706  1  0  0.086045  0  0.965204  0  0  0.092261  0  1.032348  0  0  0.094976  0  1.031793  0  0  0.089277  0.090067  0  1.033388  0
H  H11  1  0.79058240  0.96411978  0.48399653  1  0  0.086092  0  0.965198  0  0  0.092306  0  1.032341  0  0  0.095021  0  1.031785  0  0  0.089296  0.090106  0  1.033386  0
H  H12  1  0.47251743  0.65672992  0.12318129  1  0  0.081336  0  0.967173  0  0  0.087707  0  1.034937  0  0  0.090309  0  1.033399  0  0  0.089249  0.085791  0  1.036036  0
H  H13  1  0.02748296  0.15672894  0.62318079  1  0  0.081339  0  0.967137  0  0  0.087713  0  1.034902  0  0  0.090315  0  1.033365  0  0  0.089266  0.085799  0  1.035996  0
H  H14  1  0.52748319  0.34327083  0.87681934  1  0  0.081377  0  0.967149  0  0  0.087749  0  1.034911  0  0  0.090351  0  1.033374  0  0  0.089271  0.085838  0  1.036006  0
H  H15  1  0.97251655  0.84327181  0.37681984  1  0  0.081343  0  0.967141  0  0  0.087716  0  1.034908  0  0  0.090318  0  1.033371  0  0  0.089271  0.085802  0  1.036003  0
H  H16  1  0.63788577  0.80759692  0.09194141  1  0  0.10051  0  0.98542  0  0  0.104447  0  1.060431  0  0  0.10777  0  1.058597  0  0  0.095172  0.101951  0  1.06185  0
H  H17  1  0.86211342  0.30759546  0.59194004  1  0  0.100531  0  0.985409  0  0  0.10447  0  1.06041  0  0  0.107794  0  1.058576  0  0  0.095179  0.101974  0  1.061828  0
H  H18  1  0.36211374  0.19240476  0.90806061  1  0  0.10053  0  0.98542  0  0  0.104468  0  1.060422  0  0  0.107791  0  1.058588  0  0  0.095186  0.101975  0  1.061833  0
H  H19  1  0.13788386  0.69240438  0.40806097  1  0  0.100547  0  0.985394  0  0  0.104475  0  1.060388  0  0  0.1078  0  1.058551  0  0  0.095181  0.101981  0  1.061803  0
H  H20  1  0.66513263  0.98702837  0.06671483  1  0  0.110217  0  0.925242  0  0  0.119749  0  0.987894  0  0  0.123087  0  0.983813  0  0  0.125599  0.117353  0  0.990696  0
H  H21  1  0.83486742  0.48702787  0.56671487  1  0  0.110217  0  0.925249  0  0  0.119751  0  0.9879  0  0  0.12309  0  0.983819  0  0  0.125598  0.117358  0  0.990699  0
H  H22  1  0.33486688  0.01297146  0.93328501  1  0  0.110226  0  0.925293  0  0  0.119752  0  0.987936  0  0  0.123091  0  0.983855  0  0  0.125606  0.117361  0  0.990732  0
H  H23  1  0.16513320  0.51297196  0.43328496  1  0  0.110216  0  0.925255  0  0  0.119743  0  0.987904  0  0  0.123082  0  0.983824  0  0  0.125598  0.117347  0  0.990707  0
H  H24  1  0.83760680  0.16713686  0.09040580  1  0  0.135486  0  0.934089  0  0  0.144125  0  0.992134  0  0  0.14787  0  0.990624  0  0  0.117337  0.141364  0  0.9935  0
H  H25  1  0.66239263  0.66713543  0.59040676  1  0  0.135528  0  0.934029  0  0  0.144143  0  0.992099  0  0  0.147888  0  0.990589  0  0  0.117348  0.141381  0  0.993457  0
H  H26  1  0.16239270  0.83286296  0.90959285  1  0  0.135502  0  0.934053  0  0  0.14411  0  0.992134  0  0  0.147854  0  0.990626  0  0  0.117335  0.141348  0  0.993496  0
H  H27  1  0.33760577  0.33286349  0.40959345  1  0  0.1355  0  0.934064  0  0  0.144134  0  0.99211  0  0  0.147879  0  0.990601  0  0  0.117345  0.14137  0  0.993476  0
H  H28  1  0.02244706  0.27872349  0.03248220  1  0  0.104747  0  0.969531  0  0  0.110634  0  1.036714  0  0  0.113934  0  1.033917  0  0  0.100439  0.108217  0  1.038718  0
H  H29  1  0.47755439  0.77872252  0.53248311  1  0  0.104782  0  0.969523  0  0  0.110657  0  1.036711  0  0  0.113956  0  1.033915  0  0  0.100448  0.108244  0  1.038711  0
H  H30  1  0.97755356  0.72127634  0.96751645  1  0  0.104774  0  0.969515  0  0  0.110631  0  1.036738  0  0  0.11393  0  1.033942  0  0  0.100458  0.108223  0  1.038738  0
H  H31  1  0.52244623  0.22127731  0.46751731  1  0  0.104755  0  0.969552  0  0  0.110633  0  1.036745  0  0  0.113933  0  1.033948  0  0  0.100442  0.108216  0  1.03875  0
H  H32  1  0.08985168  0.18973047  0.87856128  1  0  0.104859  0  0.953656  0  0  0.110627  0  1.021052  0  0  0.114023  0  1.019454  0  0  0.102621  0.108258  0  1.022184  0
H  H33  1  0.41014709  0.68972878  0.37856180  1  0  0.104912  0  0.953632  0  0  0.110667  0  1.021037  0  0  0.114062  0  1.019437  0  0  0.102655  0.1083  0  1.022166  0
H  H34  1  0.91014783  0.81026936  0.12143796  1  0  0.10489  0  0.953632  0  0  0.110654  0  1.021018  0  0  0.114051  0  1.019418  0  0  0.102638  0.108286  0  1.022145  0
H  H35  1  0.58985242  0.31027013  0.62143782  1  0  0.104877  0  0.953661  0  0  0.110633  0  1.021064  0  0  0.114028  0  1.019465  0  0  0.102632  0.10826  0  1.022199  0
H  H36  1  0.97612914  0.99098131  0.79236245  1  0  0.088383  0  0.935432  0  0  0.097384  0  0.995723  0  0  0.099631  0  0.994114  0  0  0.119727  0.09581  0  0.996731  0
H  H37  1  0.52387161  0.49098044  0.29236289  1  0  0.088377  0  0.935489  0  0  0.097398  0  0.995763  0  0  0.099643  0  0.994157  0  0  0.119727  0.095822  0  0.996767  0
H  H38  1  0.02387148  0.00901852  0.20763679  1  0  0.088338  0  0.935442  0  0  0.097341  0  0.995731  0  0  0.099587  0  0.994123  0  0  0.119703  0.095766  0  0.996737  0
H  H39  1  0.47612790  0.50901847  0.70763732  1  0  0.088367  0  0.935465  0  0  0.097377  0  0.995747  0  0  0.099621  0  0.994144  0  0  0.119723  0.095799  0  0.996757  0
C  C40  1  0.42704660  0.72083859  0.82243749  1  0  0.65994  0  3.876678  0  0  0.604423  0  4.173593  0  0  0.640366  0  4.165246  0  0  0.213985  0.580086  0  4.178553  0
C  C41  1  0.07295443  0.22083673  0.32243769  1  0  0.659721  0  3.876873  0  0  0.604176  0  4.173834  0  0  0.64012  0  4.165489  0  0  0.213845  0.57985  0  4.178782  0
C  C42  1  0.57295513  0.27916216  0.17756196  1  0  0.659915  0  3.876814  0  0  0.60437  0  4.173762  0  0  0.64032  0  4.165411  0  0  0.213946  0.580049  0  4.178701  0
C  C43  1  0.92704507  0.77916402  0.67756294  1  0  0.659827  0  3.877  0  0  0.60428  0  4.173961  0  0  0.640225  0  4.165616  0  0  0.213931  0.579948  0  4.178915  0
C  C44  1  0.44829506  0.70390382  0.90593850  1  0  -0.148745  0  3.710611  0  0  -0.129527  0  3.944277  0  0  -0.140344  0  3.967995  0  0  -0.01933  -0.123246  0  3.929048  0
C  C45  1  0.05170586  0.20390383  0.40593854  1  0  -0.148691  0  3.710698  0  0  -0.129464  0  3.944377  0  0  -0.140283  0  3.968096  0  0  -0.019325  -0.123185  0  3.929144  0
C  C46  1  0.55170556  0.29609509  0.09406053  1  0  -0.148716  0  3.710753  0  0  -0.129493  0  3.944413  0  0  -0.14031  0  3.968129  0  0  -0.019312  -0.123212  0  3.929182  0
C  C47  1  0.94829365  0.79609692  0.59406150  1  0  -0.14862  0  3.710663  0  0  -0.129383  0  3.944332  0  0  -0.140201  0  3.968051  0  0  -0.019305  -0.123103  0  3.929101  0
C  C48  1  0.35454944  0.62043868  0.92548337  1  0  -0.061899  0  3.752214  0  0  -0.083609  0  3.998284  0  0  -0.083403  0  4.020397  0  0  -0.088737  -0.083345  0  3.983668  0
C  C49  1  0.14545380  0.12043764  0.42548253  1  0  -0.061819  0  3.752031  0  0  -0.083534  0  3.998106  0  0  -0.083327  0  4.020217  0  0  -0.088671  -0.083268  0  3.983489  0
C  C50  1  0.64545340  0.37956115  0.07451706  1  0  -0.061808  0  3.752022  0  0  -0.083517  0  3.998093  0  0  -0.083309  0  4.020202  0  0  -0.088663  -0.083249  0  3.983483  0
C  C51  1  0.85454459  0.87956219  0.57451789  1  0  -0.061931  0  3.75207  0  0  -0.083633  0  3.998164  0  0  -0.083425  0  4.020272  0  0  -0.088692  -0.083366  0  3.983551  0
C  C52  1  0.36332854  0.60228039  0.00251498  1  0  -0.064685  0  3.758934  0  0  -0.077009  0  4.008168  0  0  -0.082138  0  4.032531  0  0  -0.092415  -0.074771  0  3.992208  0
C  C53  1  0.13667325  0.10228018  0.50251518  1  0  -0.064693  0  3.758952  0  0  -0.077011  0  4.008182  0  0  -0.082139  0  4.032545  0  0  -0.092417  -0.07478  0  3.992222  0
C  C54  1  0.63667319  0.39771852  0.99748464  1  0  -0.064598  0  3.758947  0  0  -0.076919  0  4.008171  0  0  -0.082047  0  4.032534  0  0  -0.09241  -0.074685  0  3.992221  0
C  C55  1  0.86332625  0.89772057  0.49748545  1  0  -0.064673  0  3.758888  0  0  -0.076976  0  4.008104  0  0  -0.082104  0  4.032466  0  0  -0.092407  -0.074737  0  3.992142  0
C  C56  1  0.46518020  0.66994565  0.06257412  1  0  -0.040424  0  3.784728  0  0  -0.056189  0  4.035285  0  0  -0.055719  0  4.057069  0  0  -0.089586  -0.055908  0  4.019666  0
C  C57  1  0.03482137  0.16994466  0.56257301  1  0  -0.040408  0  3.784702  0  0  -0.05618  0  4.035267  0  0  -0.05571  0  4.057052  0  0  -0.089603  -0.055897  0  4.01964  0
C  C58  1  0.53482264  0.33005418  0.93742690  1  0  -0.040576  0  3.784797  0  0  -0.056349  0  4.035368  0  0  -0.05588  0  4.057155  0  0  -0.089633  -0.056068  0  4.019747  0
C  C59  1  0.96517813  0.83005609  0.43742762  1  0  -0.04042  0  3.784742  0  0  -0.056198  0  4.03531  0  0  -0.055729  0  4.057096  0  0  -0.089602  -0.055915  0  4.019688  0
C  C60  1  0.55832919  0.75445597  0.04522975  1  0  -0.15619  0  3.721345  0  0  -0.174201  0  3.970104  0  0  -0.180372  0  3.992425  0  0  -0.095274  -0.169061  0  3.95425  0
C  C61  1  0.94167017  0.25445532  0.54522911  1  0  -0.156272  0  3.721305  0  0  -0.174274  0  3.970081  0  0  -0.180447  0  3.9924  0  0  -0.095275  -0.169132  0  3.954221  0
C  C62  1  0.44167142  0.24554294  0.95477047  1  0  -0.156153  0  3.721234  0  0  -0.174148  0  3.969979  0  0  -0.180319  0  3.992301  0  0  -0.095256  -0.169006  0  3.954116  0
C  C63  1  0.05832712  0.74554451  0.45477131  1  0  -0.156273  0  3.721311  0  0  -0.174249  0  3.970091  0  0  -0.180419  0  3.99241  0  0  -0.09531  -0.169115  0  3.954238  0
C  C64  1  0.55165995  0.77165529  0.96697993  1  0  0.207459  0  3.798623  0  0  0.20081  0  4.040377  0  0  0.2068  0  4.06536  0  0  0.093132  0.196745  0  4.02328  0
C  C65  1  0.94834198  0.27165473  0.46697905  1  0  0.207586  0  3.7986  0  0  0.200908  0  4.040382  0  0  0.206899  0  4.065364  0  0  0.093163  0.196839  0  4.023287  0
C  C66  1  0.44834289  0.22834363  0.03302029  1  0  0.207446  0  3.798697  0  0  0.200785  0  4.040456  0  0  0.206773  0  4.06544  0  0  0.093114  0.196716  0  4.023363  0
C  C67  1  0.05165642  0.72834510  0.53302078  1  0  0.207498  0  3.798604  0  0  0.200807  0  4.040421  0  0  0.206796  0  4.065405  0  0  0.093136  0.196741  0  4.023327  0
C  C68  1  0.69919478  0.95216636  0.00056539  1  0  0.114495  0  3.61109  0  0  0.07516  0  3.861231  0  0  0.087999  0  3.870572  0  0  0.090824  0.066906  0  3.854381  0
C  C69  1  0.80080544  0.45216591  0.50056546  1  0  0.114489  0  3.611128  0  0  0.07515  0  3.861275  0  0  0.087989  0  3.870617  0  0  0.09083  0.066897  0  3.854425  0
C  C70  1  0.30080473  0.04783346  0.99943326  1  0  0.114428  0  3.611121  0  0  0.075139  0  3.861227  0  0  0.087978  0  3.870566  0  0  0.090822  0.066881  0  3.854382  0
C  C71  1  0.19919518  0.54783483  0.49943399  1  0  0.114533  0  3.61109  0  0  0.075222  0  3.861199  0  0  0.088062  0  3.87054  0  0  0.090873  0.066967  0  3.854352  0
C  C72  1  0.80827265  0.02225393  0.97105521  1  0  0.180325  0  3.805483  0  0  0.180146  0  4.049531  0  0  0.182703  0  4.072653  0  0  0.110765  0.178453  0  4.033709  0
C  C73  1  0.69172747  0.52225163  0.47105452  1  0  0.18037  0  3.805407  0  0  0.180165  0  4.049478  0  0  0.18272  0  4.072601  0  0  0.110731  0.178465  0  4.033662  0
C  C74  1  0.19172686  0.97774774  0.02894445  1  0  0.180451  0  3.805354  0  0  0.180227  0  4.049443  0  0  0.182784  0  4.072565  0  0  0.110738  0.17853  0  4.033628  0
C  C75  1  0.30827203  0.47774728  0.52894510  1  0  0.180305  0  3.805517  0  0  0.180125  0  4.049546  0  0  0.182681  0  4.072668  0  0  0.110742  0.178431  0  4.03372  0
C  C76  1  0.86924135  0.13174309  0.02438984  1  0  -0.111136  0  3.637746  0  0  -0.130064  0  3.883101  0  0  -0.135542  0  3.904596  0  0  -0.064947  -0.126716  0  3.868584  0
C  C77  1  0.63075826  0.63174169  0.52438964  1  0  -0.111112  0  3.637683  0  0  -0.130003  0  3.883024  0  0  -0.135481  0  3.904518  0  0  -0.06489  -0.126643  0  3.868496  0
C  C78  1  0.13075816  0.86825766  0.97560902  1  0  -0.111178  0  3.63761  0  0  -0.130055  0  3.882978  0  0  -0.135532  0  3.904471  0  0  -0.064918  -0.126697  0  3.868458  0
C  C79  1  0.36924013  0.36825814  0.47561019  1  0  -0.111154  0  3.637667  0  0  -0.130064  0  3.883008  0  0  -0.135542  0  3.904502  0  0  -0.06494  -0.126711  0  3.868487  0
C  C80  1  0.97200104  0.19407693  0.99150659  1  0  0.004259  0  3.681199  0  0  -0.014449  0  3.932911  0  0  -0.012066  0  3.951704  0  0  -0.063671  -0.015475  0  3.919713  0
C  C81  1  0.52799764  0.69407486  0.49150663  1  0  0.004178  0  3.681347  0  0  -0.014519  0  3.933044  0  0  -0.012136  0  3.951837  0  0  -0.063691  -0.015557  0  3.919848  0
C  C82  1  0.02799624  0.80592382  0.00849286  1  0  0.004207  0  3.68116  0  0  -0.014508  0  3.932934  0  0  -0.012124  0  3.951725  0  0  -0.063726  -0.015547  0  3.919736  0
C  C83  1  0.47200187  0.30592313  0.50849278  1  0  0.004244  0  3.68117  0  0  -0.014476  0  3.932896  0  0  -0.012092  0  3.951687  0  0  -0.063695  -0.015507  0  3.919696  0
C  C84  1  0.01002838  0.14496793  0.90710384  1  0  -0.105231  0  3.699897  0  0  -0.12068  0  3.957022  0  0  -0.127145  0  3.977867  0  0  -0.076504  -0.116268  0  3.94245  0
C  C85  1  0.48997152  0.64496797  0.40710530  1  0  -0.105306  0  3.700014  0  0  -0.120743  0  3.957149  0  0  -0.127204  0  3.97799  0  0  -0.076571  -0.116336  0  3.94258  0
C  C86  1  0.98997113  0.85503282  0.09289502  1  0  -0.105218  0  3.699937  0  0  -0.12065  0  3.957067  0  0  -0.127113  0  3.977909  0  0  -0.076495  -0.116239  0  3.942491  0
C  C87  1  0.51002909  0.35503187  0.59289512  1  0  -0.105222  0  3.699924  0  0  -0.120649  0  3.957056  0  0  -0.127111  0  3.977899  0  0  -0.076494  -0.116235  0  3.942481  0
C  C88  1  0.94581757  0.03377061  0.85797577  1  0  0.158644  0  3.682252  0  0  0.125166  0  3.937554  0  0  0.132809  0  3.953991  0  0  0.058749  0.120284  0  3.925891  0
C  C89  1  0.55418273  0.53376943  0.35797600  1  0  0.158703  0  3.682287  0  0  0.1252  0  3.937583  0  0  0.132843  0  3.95402  0  0  0.058784  0.120324  0  3.925916  0
C  C90  1  0.05418194  0.96623014  0.14202309  1  0  0.15873  0  3.682261  0  0  0.125276  0  3.937527  0  0  0.13292  0  3.953964  0  0  0.058789  0.120397  0  3.92586  0
C  C91  1  0.44581678  0.46623040  0.64202443  1  0  0.158702  0  3.682237  0  0  0.125217  0  3.937535  0  0  0.13286  0  3.953972  0  0  0.058779  0.120337  0  3.925867  0
C  C92  1  0.84088009  0.54852625  0.77673487  1  0  0.607326  0  3.964539  0  0  0.55558  0  4.267872  0  0  0.588634  0  4.262575  0  0  0.193599  0.533232  0  4.270618  0
C  C93  1  0.65912143  0.04852611  0.27673600  1  0  0.607215  0  3.964668  0  0  0.55549  0  4.267953  0  0  0.588542  0  4.26266  0  0  0.193558  0.533147  0  4.270695  0
C  C94  1  0.15912052  0.45147266  0.22326357  1  0  0.607295  0  3.964566  0  0  0.555556  0  4.267887  0  0  0.588609  0  4.262594  0  0  0.193597  0.533199  0  4.270641  0
C  C95  1  0.34088029  0.95147373  0.72326501  1  0  0.607275  0  3.96463  0  0  0.555545  0  4.267932  0  0  0.5886  0  4.262636  0  0  0.193579  0.533188  0  4.270687  0
C  C96  1  0.93484693  0.44308367  0.79357453  1  0  0.160022  0  3.508532  0  0  0.1654  0  3.795002  0  0  0.171389  0  3.800175  0  0  0.083726  0.160757  0  3.791803  0
C  C97  1  0.56515389  0.94308339  0.29357613  1  0  0.160089  0  3.508547  0  0  0.165447  0  3.795025  0  0  0.17144  0  3.800196  0  0  0.08375  0.160802  0  3.791826  0
C  C98  1  0.06515368  0.55691616  0.20642471  1  0  0.160097  0  3.508489  0  0  0.165474  0  3.794957  0  0  0.171463  0  3.800131  0  0  0.083748  0.160842  0  3.791738  0
C  C99  1  0.43484450  0.05691736  0.70642509  1  0  0.160041  0  3.508539  0  0  0.165426  0  3.794989  0  0  0.171411  0  3.800162  0  0  0.083743  0.160794  0  3.791767  0
N  N100  1  0.64912309  0.85190180  0.94701350  1  0  -0.342234  0  3.31764  0  0  -0.269325  0  3.585023  0  0  -0.288292  0  3.59925  0  0  -0.312455  -0.256454  0  3.575088  0
N  N101  1  0.85087763  0.35190047  0.44701308  1  0  -0.342317  0  3.317662  0  0  -0.269379  0  3.585049  0  0  -0.288347  0  3.599276  0  0  -0.312476  -0.25651  0  3.575119  0
N  N102  1  0.35087753  0.14809803  0.05298633  1  0  -0.342236  0  3.317619  0  0  -0.269334  0  3.584997  0  0  -0.288302  0  3.599224  0  0  -0.312464  -0.256463  0  3.57507  0
N  N103  1  0.14912077  0.64809936  0.55298734  1  0  -0.342284  0  3.317572  0  0  -0.269378  0  3.584984  0  0  -0.288346  0  3.599211  0  0  -0.3125  -0.256507  0  3.575051  0
N  N104  1  0.84740696  0.97384396  0.88899877  1  0  -0.372609  0  3.26883  0  0  -0.298367  0  3.535811  0  0  -0.316323  0  3.551342  0  0  -0.31659  -0.286134  0  3.525265  0
N  N105  1  0.65259365  0.47384291  0.38899911  1  0  -0.37268  0  3.268849  0  0  -0.298427  0  3.535853  0  0  -0.316382  0  3.551383  0  0  -0.316621  -0.2862  0  3.525318  0
N  N106  1  0.15259144  0.02615678  0.11100009  1  0  -0.372716  0  3.268833  0  0  -0.298486  0  3.535849  0  0  -0.316443  0  3.551379  0  0  -0.316608  -0.286259  0  3.525318  0
N  N107  1  0.34740696  0.52615692  0.61100132  1  0  -0.372661  0  3.268859  0  0  -0.298432  0  3.535866  0  0  -0.316387  0  3.551398  0  0  -0.316632  -0.286203  0  3.525324  0
Cl  Cl108  1  0.98538662  0.47480048  0.90066164  1  0  -0.085203  0  1.372209  0  0  -0.07244  0  1.621602  0  0  -0.073327  0  1.610999  0  0  0.000394  -0.071859  0  1.629249  0
Cl  Cl109  1  0.51461619  0.97480396  0.40066353  1  0  -0.085246  0  1.372214  0  0  -0.07248  0  1.62162  0  0  -0.073368  0  1.611018  0  0  0.00036  -0.071893  0  1.629263  0
Cl  Cl110  1  0.01461289  0.52519659  0.09933756  1  0  -0.085245  0  1.372216  0  0  -0.072483  0  1.621616  0  0  -0.07337  0  1.611013  0  0  0.000378  -0.071901  0  1.629254  0
Cl  Cl111  1  0.48538553  0.02519679  0.59933769  1  0  -0.085208  0  1.372207  0  0  -0.072446  0  1.6216  0  0  -0.073332  0  1.610997  0  0  0.000397  -0.071862  0  1.629236  0
Cl  Cl112  1  0.10122970  0.42715374  0.73356180  1  0  -0.056389  0  1.349105  0  0  -0.045324  0  1.597565  0  0  -0.047887  0  1.589577  0  0  0.013669  -0.043445  0  1.603161  0
Cl  Cl113  1  0.39877003  0.92715483  0.23356414  1  0  -0.056369  0  1.349093  0  0  -0.045296  0  1.597548  0  0  -0.047866  0  1.589572  0  0  0.0137  -0.043416  0  1.60315  0
Cl  Cl114  1  0.89876870  0.57284517  0.26643723  1  0  -0.056397  0  1.349079  0  0  -0.045325  0  1.597533  0  0  -0.047893  0  1.589554  0  0  0.013678  -0.043448  0  1.603128  0
Cl  Cl115  1  0.60122947  0.07284592  0.76643827  1  0  -0.05638  0  1.34907  0  0  -0.045323  0  1.597533  0  0  -0.047884  0  1.589544  0  0  0.013669  -0.043449  0  1.603127  0
Cl  Cl116  1  0.83098878  0.30305327  0.76115317  1  0  -0.099534  0  1.324999  0  0  -0.09053  0  1.562659  0  0  -0.092199  0  1.553566  0  0  -0.009227  -0.089525  0  1.568935  0
Cl  Cl117  1  0.66901123  0.80305468  0.26115510  1  0  -0.099544  0  1.32505  0  0  -0.090546  0  1.562724  0  0  -0.092214  0  1.55363  0  0  -0.009231  -0.08954  0  1.568997  0
Cl  Cl118  1  0.16900850  0.69694748  0.23884747  1  0  -0.09956  0  1.325014  0  0  -0.09056  0  1.562675  0  0  -0.092228  0  1.553582  0  0  -0.009235  -0.089559  0  1.568942  0
Cl  Cl119  1  0.33098828  0.19694607  0.73884730  1  0  -0.099549  0  1.325048  0  0  -0.09055  0  1.562709  0  0  -0.092217  0  1.553614  0  0  -0.009241  -0.08955  0  1.568975  0
O  O120  1  0.53013162  0.75740831  0.78524550  1  0  -0.613881  0  2.062201  0  0  -0.549263  0  2.337551  0  0  -0.576898  0  2.321957  0  0  -0.311573  -0.529886  0  2.347623  0
O  O121  1  0.96986954  0.25740496  0.28524398  1  0  -0.613873  0  2.062254  0  0  -0.549231  0  2.3376  0  0  -0.576866  0  2.322007  0  0  -0.311578  -0.529862  0  2.347676  0
O  O122  1  0.46986788  0.24259336  0.21475534  1  0  -0.61388  0  2.062162  0  0  -0.549263  0  2.337526  0  0  -0.576898  0  2.32193  0  0  -0.311564  -0.529893  0  2.347601  0
O  O123  1  0.03013108  0.74259487  0.71475526  1  0  -0.613903  0  2.062338  0  0  -0.549253  0  2.337675  0  0  -0.57689  0  2.322084  0  0  -0.311572  -0.529884  0  2.347755  0
O  O124  1  0.29742238  0.69287357  0.79084583  1  0  -0.620846  0  2.089541  0  0  -0.548151  0  2.364436  0  0  -0.577144  0  2.349867  0  0  -0.310261  -0.52797  0  2.373834  0
O  O125  1  0.20257876  0.19287061  0.29084453  1  0  -0.620751  0  2.089444  0  0  -0.548042  0  2.364339  0  0  -0.577037  0  2.349773  0  0  -0.310163  -0.527862  0  2.373734  0
O  O126  1  0.70257824  0.30712718  0.20915421  1  0  -0.620909  0  2.089587  0  0  -0.548177  0  2.364476  0  0  -0.577189  0  2.349915  0  0  -0.310271  -0.528  0  2.373868  0
O  O127  1  0.79742186  0.80712830  0.70915509  1  0  -0.62085  0  2.089623  0  0  -0.548149  0  2.364542  0  0  -0.577146  0  2.349974  0  0  -0.310257  -0.527967  0  2.373931  0
O  O128  1  0.83899009  0.64964822  0.83801228  1  0  -0.605132  0  2.098073  0  0  -0.541068  0  2.367997  0  0  -0.569193  0  2.354717  0  0  -0.316557  -0.521423  0  2.376403  0
O  O129  1  0.66101339  0.14964623  0.33801240  1  0  -0.605137  0  2.098134  0  0  -0.541069  0  2.368047  0  0  -0.569192  0  2.354767  0  0  -0.316561  -0.521424  0  2.376451  0
O  O130  1  0.16101275  0.35035345  0.16198797  1  0  -0.605163  0  2.09813  0  0  -0.541104  0  2.368059  0  0  -0.569225  0  2.354778  0  0  -0.316582  -0.521455  0  2.376468  0
O  O131  1  0.33898945  0.85035268  0.66198840  1  0  -0.605132  0  2.09813  0  0  -0.541067  0  2.368031  0  0  -0.569191  0  2.354751  0  0  -0.316557  -0.521417  0  2.376438  0
O  O132  1  0.78369973  0.52108528  0.70631953  1  0  -0.569708  0  1.964876  0  0  -0.538286  0  2.197778  0  0  -0.561679  0  2.192273  0  0  -0.313471  -0.521844  0  2.20093  0
O  O133  1  0.71630086  0.02108414  0.20632041  1  0  -0.569641  0  1.964885  0  0  -0.538219  0  2.197753  0  0  -0.561612  0  2.192251  0  0  -0.313442  -0.521782  0  2.200907  0
O  O134  1  0.21629978  0.47891363  0.29368068  1  0  -0.569668  0  1.964846  0  0  -0.538257  0  2.197752  0  0  -0.561652  0  2.192251  0  0  -0.313455  -0.521811  0  2.200908  0
O  O135  1  0.28369976  0.97891478  0.79367980  1  0  -0.569676  0  1.964907  0  0  -0.538261  0  2.197796  0  0  -0.561656  0  2.192292  0  0  -0.313456  -0.52182  0  2.200954  0
