# generated using pymatgen
data_Al2H8C16S2NClO10
_symmetry_space_group_name_H-M   'P 1'
_cell_length_a   6.71621822
_cell_length_b   11.12541333
_cell_length_c   12.83673635
_cell_angle_alpha   61.34811879
_cell_angle_beta   71.24901184
_cell_angle_gamma   72.83304703
_symmetry_Int_Tables_number   1
_chemical_formula_structural   Al2H8C16S2NClO10
_chemical_formula_sum   'Al2 H8 C16 S2 N1 Cl1 O10'
_cell_volume   785.48253626
_cell_formula_units_Z   1
loop_
 _symmetry_equiv_pos_site_id
 _symmetry_equiv_pos_as_xyz
  1  'x, y, z'
loop_
 _atom_site_type_symbol
 _atom_site_label
 _atom_site_symmetry_multiplicity
 _atom_site_fract_x
 _atom_site_fract_y
 _atom_site_fract_z
 _atom_site_occupancy
 _atom_site_pbe_bader_charge
 _atom_site_pbe_bader_spin_density
 _atom_site_pbe_cm5_charge
 _atom_site_pbe_ddec_charge
 _atom_site_pbe_ddec_spin_density
 _atom_site_pbe_ddec_sum_bond_order
 _atom_site_pbe_magmom
Al  Al0  1  0.50222435  0.50145201  0.49719251  1  2.507515  0  0.394902  1.647809  0  2.587101  0
Al  Al1  1  0.00461671  0.49772832  0.50005514  1  2.502523  0  0.398141  1.646862  0  2.56136  0
H  H2  1  0.22166019  0.67646820  0.40007370  1  0.61191  0  0.354641  0.433182  0  0.84848  0
H  H3  1  0.76634616  0.32752566  0.61170749  1  0.623873  0  0.356446  0.434939  0  0.842801  0
H  H4  1  0.17050142  0.14462400  0.43705726  1  0.124866  0  0.11181  0.119207  0  0.988603  0
H  H5  1  0.70780116  0.08010446  0.58201945  1  0.103473  0  0.1115  0.126301  0  0.998049  0
H  H6  1  0.30320629  0.91288467  0.42995861  1  0.098023  0  0.104796  0.107092  0  1.011429  0
H  H7  1  0.63159905  0.48009705  0.17614353  1  0.127716  0  0.117486  0.142963  0  0.989039  0
H  H8  1  0.51563291  0.54430008  0.84920242  1  0.465781  0  0.280596  0.270241  0  1.043401  0
H  H9  1  0.49411883  0.50467045  0.73789300  1  0.478554  0  0.312063  0.322674  0  0.958827  0
C  C10  1  0.86293120  0.53864774  0.28952404  1  1.612231  0  0.257517  0.647211  0  4.154964  0
C  C11  1  0.64668822  0.73105806  0.49015613  1  1.589669  0  0.266596  0.655629  0  4.083984  0
C  C12  1  0.14540375  0.45676333  0.71057746  1  1.521092  0  0.238583  0.644528  0  4.165112  0
C  C13  1  0.36230739  0.26672815  0.51035028  1  1.578483  0  0.274323  0.651438  0  4.078409  0
C  C14  1  0.57836825  0.86608141  0.50092764  1  0.065152  0  -0.012527  -0.097196  0  3.921641  0
C  C15  1  0.43332919  0.12723922  0.50829274  1  0.037241  0  -0.00648  -0.012278  0  3.972148  0
C  C16  1  0.68969409  0.91322297  0.54692217  1  0.073714  0  0.023815  0.136432  0  4.015032  0
C  C17  1  0.31654494  0.07980038  0.46674721  1  -0.076975  0  -0.081756  -0.102526  0  3.977455  0
C  C18  1  0.61910573  0.04379129  0.54811599  1  -0.04178  0  -0.087542  -0.168952  0  3.964622  0
C  C19  1  0.39083590  0.95146169  0.46251139  1  -0.0362  0  -0.078528  -0.07529  0  3.98474  0
C  C20  1  0.22326630  0.50358436  0.86701449  1  0.58321  0  0.11017  0.290232  0  4.113387  0
C  C21  1  0.79513255  0.49479949  0.12900560  1  0.029238  0  -0.087959  -0.135463  0  3.969  0
C  C22  1  0.08968701  0.46805246  0.82427152  1  -0.101234  0  -0.050859  -0.275966  0  3.959544  0
C  C23  1  0.92502406  0.52674084  0.17362957  1  -0.18781  0  -0.020661  -0.119792  0  3.969379  0
C  C24  1  0.90380101  0.48448188  0.01892273  1  -0.138836  0  -0.023584  0.005674  0  4.120787  0
C  C25  1  0.11317260  0.51136190  0.97979330  1  -0.216281  0  -0.028423  -0.120525  0  4.022052  0
S  S26  1  0.83892409  0.44411158  0.92136044  1  0.196471  0  0.061997  0.082792  0  2.895453  0
S  S27  1  0.17926488  0.54493125  0.08151024  1  0.244644  0  0.082407  0.130631  0  2.752831  0
N  N28  1  0.42177514  0.53248279  0.80780931  1  -1.264336  0  -0.580807  -0.575526  0  3.381177  0
Cl  Cl29  1  0.90863516  0.81330442  0.61006722  1  -0.191074  0  0.023137  -0.045991  0  1.591101  0
O  O30  1  0.66321604  0.54864879  0.33619784  1  -1.263853  0  -0.239419  -0.594613  0  2.346865  0
O  O31  1  0.84358699  0.67817861  0.48066646  1  -1.259419  0  -0.235892  -0.6034  0  2.39923  0
O  O32  1  0.00084010  0.45337302  0.66705086  1  -1.260411  0  -0.258125  -0.612922  0  2.30658  0
O  O33  1  0.50495766  0.32248831  0.50809255  1  -1.256966  0  -0.233003  -0.589953  0  2.341396  0
O  O34  1  0.34555187  0.45119150  0.65921240  1  -1.271814  0  -0.250588  -0.619233  0  2.382642  0
O  O35  1  0.16540124  0.31886657  0.51392686  1  -1.263979  0  -0.232304  -0.592129  0  2.339241  0
O  O36  1  0.00899615  0.53647546  0.33410674  1  -1.244399  0  -0.242699  -0.588546  0  2.318088  0
O  O37  1  0.50108607  0.67964354  0.48944055  1  -1.253078  0  -0.235135  -0.593996  0  2.341576  0
O  O38  1  0.25053183  0.57583331  0.43994748  1  -1.416347  0  -0.446939  -0.983453  0  2.178501  0
O  O39  1  0.75239212  0.42599272  0.55844382  1  -1.430587  0  -0.447697  -0.988087  0  2.187637  0
