# generated using pymatgen
data_CdH7C7NO7
_symmetry_space_group_name_H-M   'P 1'
_cell_length_a   7.05843915
_cell_length_b   7.09970452
_cell_length_c   11.04576161
_cell_angle_alpha   105.58243824
_cell_angle_beta   98.36762965
_cell_angle_gamma   112.71695677
_symmetry_Int_Tables_number   1
_chemical_formula_structural   CdH7C7NO7
_chemical_formula_sum   'Cd2 H14 C14 N2 O14'
_cell_volume   472.07651062
_cell_formula_units_Z   2
loop_
 _symmetry_equiv_pos_site_id
 _symmetry_equiv_pos_as_xyz
  1  'x, y, z'
loop_
 _atom_site_type_symbol
 _atom_site_label
 _atom_site_symmetry_multiplicity
 _atom_site_fract_x
 _atom_site_fract_y
 _atom_site_fract_z
 _atom_site_occupancy
 _atom_site_hle17_bader_spin_density
 _atom_site_hle17_ddec_charge
 _atom_site_hle17_ddec_spin_density
 _atom_site_hle17_ddec_sum_bond_order
 _atom_site_hle17_magmom
 _atom_site_hse06_10hf_bader_spin_density
 _atom_site_hse06_10hf_ddec_charge
 _atom_site_hse06_10hf_ddec_spin_density
 _atom_site_hse06_10hf_ddec_sum_bond_order
 _atom_site_hse06_10hf_magmom
 _atom_site_hse06_bader_spin_density
 _atom_site_hse06_ddec_charge
 _atom_site_hse06_ddec_spin_density
 _atom_site_hse06_ddec_sum_bond_order
 _atom_site_hse06_magmom
 _atom_site_pbe_bader_spin_density
 _atom_site_pbe_cm5_charge
 _atom_site_pbe_ddec_charge
 _atom_site_pbe_ddec_spin_density
 _atom_site_pbe_ddec_sum_bond_order
 _atom_site_pbe_magmom
Cd  Cd0  1  0.28229398  0.56928504  0.51767672  1  0  1.304136  0  1.595747  0  0  1.13647  0  2.043383  0  0  1.191631  0  1.982727  0  0  0.785322  1.096379  0  2.085581  0
Cd  Cd1  1  0.71769751  0.43071260  0.48232066  1  0  1.304144  0  1.595697  0  0  1.136474  0  2.043321  0  0  1.191631  0  1.982671  0  0  0.785309  1.096381  0  2.085518  0
H  H2  1  0.26327171  0.30416095  0.68242063  1  0  0.427908  0  0.877941  0  0  0.394122  0  0.945948  0  0  0.40529  0  0.929939  0  0  0.288812  0.386221  0  0.957238  0
H  H3  1  0.73671770  0.69583508  0.31757354  1  0  0.42792  0  0.877896  0  0  0.394133  0  0.945917  0  0  0.405302  0  0.929905  0  0  0.288793  0.386232  0  0.957207  0
H  H4  1  0.14572214  0.44940317  0.73396180  1  0  0.434473  0  0.844422  0  0  0.408243  0  0.904915  0  0  0.416731  0  0.892475  0  0  0.306419  0.402217  0  0.91375  0
H  H5  1  0.85427719  0.55059620  0.26603937  1  0  0.434501  0  0.844315  0  0  0.408277  0  0.904867  0  0  0.416764  0  0.892428  0  0  0.306422  0.402252  0  0.9137  0
H  H6  1  0.47917039  0.84405257  0.37914511  1  0  0.441974  0  0.852946  0  0  0.410413  0  0.91699  0  0  0.421339  0  0.901249  0  0  0.295556  0.402606  0  0.928217  0
H  H7  1  0.52082467  0.15594677  0.62085292  1  0  0.442024  0  0.852915  0  0  0.410449  0  0.916976  0  0  0.421376  0  0.901233  0  0  0.295578  0.402633  0  0.92821  0
H  H8  1  0.24472161  0.66573417  0.29351540  1  0  0.404987  0  0.905967  0  0  0.366805  0  0.983195  0  0  0.378399  0  0.96622  0  0  0.286711  0.358608  0  0.995156  0
H  H9  1  0.75527432  0.33425706  0.70648221  1  0  0.405059  0  0.90588  0  0  0.366829  0  0.983165  0  0  0.378423  0  0.96619  0  0  0.286716  0.358627  0  0.995132  0
H  H10  1  0.51139581  0.15845100  0.21009231  1  0  0.114672  0  0.960084  0  0  0.125875  0  1.019547  0  0  0.129371  0  1.018399  0  0  0.104339  0.123376  0  1.02057  0
H  H11  1  0.48860320  0.84156130  0.78991290  1  0  0.11471  0  0.960003  0  0  0.125917  0  1.019465  0  0  0.129414  0  1.018316  0  0  0.104354  0.123418  0  1.020487  0
H  H12  1  0.29975637  0.84704941  0.99986373  1  0  0.116561  0  0.931577  0  0  0.127141  0  0.988508  0  0  0.130324  0  0.985657  0  0  0.11377  0.124838  0  0.990529  0
H  H13  1  0.70025353  0.15296479  0.00013929  1  0  0.116533  0  0.931491  0  0  0.127166  0  0.988388  0  0  0.130308  0  0.985588  0  0  0.113779  0.124859  0  0.990415  0
H  H14  1  0.72073299  0.76489108  0.11111984  1  0  0.129279  0  0.94239  0  0  0.134579  0  1.007076  0  0  0.138331  0  1.003065  0  0  0.118234  0.131921  0  1.009769  0
H  H15  1  0.27926931  0.23511170  0.88887589  1  0  0.129241  0  0.942464  0  0  0.134561  0  1.007124  0  0  0.138314  0  1.003116  0  0  0.118245  0.131903  0  1.009817  0
C  C16  1  0.88256253  0.08630871  0.33922393  1  0  0.713096  0  3.843675  0  0  0.654394  0  4.140058  0  0  0.691649  0  4.130311  0  0  0.22335  0.628876  0  4.146123  0
C  C17  1  0.11742545  0.91368400  0.66077223  1  0  0.713088  0  3.843672  0  0  0.654452  0  4.14001  0  0  0.691694  0  4.130266  0  0  0.223369  0.628936  0  4.146072  0
C  C18  1  0.00963057  0.02754844  0.25140347  1  0  -0.19607  0  3.691135  0  0  -0.177379  0  3.936189  0  0  -0.194267  0  3.957398  0  0  -0.033356  -0.166462  0  3.922128  0
C  C19  1  0.99035730  0.97244748  0.74859505  1  0  -0.195963  0  3.690903  0  0  -0.177387  0  3.936145  0  0  -0.194259  0  3.957331  0  0  -0.033407  -0.166463  0  3.92208  0
C  C20  1  0.23914280  0.13978025  0.28298739  1  0  0.420096  0  3.797777  0  0  0.393598  0  4.062123  0  0  0.41752  0  4.072657  0  0  0.106717  0.377487  0  4.054465  0
C  C21  1  0.76085564  0.86022064  0.71701939  1  0  0.420225  0  3.797697  0  0  0.393712  0  4.062174  0  0  0.417638  0  4.072697  0  0  0.106753  0.377594  0  4.054514  0
C  C22  1  0.33830791  0.06958972  0.18800729  1  0  -0.18587  0  3.688633  0  0  -0.20832  0  3.953715  0  0  -0.220626  0  3.973905  0  0  -0.103848  -0.200325  0  3.940069  0
C  C23  1  0.66169610  0.93042100  0.81200177  1  0  -0.185943  0  3.688604  0  0  -0.208422  0  3.953831  0  0  -0.220727  0  3.974001  0  0  -0.103894  -0.200426  0  3.940184  0
C  C24  1  0.22193525  0.89968450  0.07086754  1  0  -0.053879  0  3.743239  0  0  -0.086122  0  4.015555  0  0  -0.079272  0  4.033165  0  0  -0.079623  -0.090207  0  4.003391  0
C  C25  1  0.77807321  0.10032967  0.92913533  1  0  -0.054179  0  3.744567  0  0  -0.086126  0  4.015498  0  0  -0.079245  0  4.033118  0  0  -0.07962  -0.090208  0  4.003328  0
C  C26  1  0.99805381  0.78965659  0.04406678  1  0  0.037811  0  3.776249  0  0  0.014579  0  4.047171  0  0  0.003815  0  4.073255  0  0  0.058646  0.021294  0  4.029711  0
C  C27  1  0.00195843  0.21034956  0.95593506  1  0  0.030178  0  3.771783  0  0  0.01452  0  4.047165  0  0  0.003758  0  4.073235  0  0  0.058633  0.021238  0  4.0297  0
C  C28  1  0.89411479  0.85328038  0.13406344  1  0  -0.085625  0  3.737665  0  0  -0.122642  0  3.999881  0  0  -0.11468  0  4.01678  0  0  -0.07463  -0.127319  0  3.988167  0
C  C29  1  0.10588688  0.14671423  0.86593442  1  0  -0.086066  0  3.739308  0  0  -0.122655  0  3.999843  0  0  -0.114698  0  4.016736  0  0  -0.074656  -0.127335  0  3.98813  0
N  N30  1  0.87351392  0.60866410  0.92601465  1  0  0.466026  0  3.94871  0  0  0.517589  0  4.208901  0  0  0.539537  0  4.220291  0  0  0.035312  0.503028  0  4.201053  0
N  N31  1  0.12649843  0.39133884  0.07398482  1  0  0.492572  0  3.908904  0  0  0.517772  0  4.20853  0  0  0.539726  0  4.219914  0  0  0.03544  0.503216  0  4.200678  0
O  O32  1  0.93526465  0.29032468  0.39704636  1  0  -0.710775  0  2.114301  0  0  -0.630412  0  2.394765  0  0  -0.663724  0  2.378689  0  0  -0.334  -0.606622  0  2.404941  0
O  O33  1  0.06472097  0.70966950  0.60295616  1  0  -0.710759  0  2.1145  0  0  -0.630434  0  2.394949  0  0  -0.663771  0  2.378937  0  0  -0.333978  -0.606645  0  2.40513  0
O  O34  1  0.72308854  0.93252737  0.34669072  1  0  -0.616623  0  2.01521  0  0  -0.552372  0  2.233549  0  0  -0.578834  0  2.222645  0  0  -0.291936  -0.533801  0  2.240601  0
O  O35  1  0.27690457  0.06746386  0.65330388  1  0  -0.616685  0  2.015088  0  0  -0.552424  0  2.233383  0  0  -0.578882  0  2.222489  0  0  -0.291964  -0.533859  0  2.240435  0
O  O36  1  0.35536713  0.29553951  0.39536670  1  0  -0.663682  0  2.112462  0  0  -0.581443  0  2.381776  0  0  -0.615841  0  2.371854  0  0  -0.336725  -0.55663  0  2.387343  0
O  O37  1  0.64462194  0.70445955  0.60463974  1  0  -0.663764  0  2.112547  0  0  -0.581465  0  2.381776  0  0  -0.615866  0  2.371858  0  0  -0.336684  -0.556671  0  2.387391  0
O  O38  1  0.96870057  0.55444073  0.84355042  1  0  -0.454868  0  1.843482  0  0  -0.422676  0  2.050206  0  0  -0.438975  0  2.047124  0  0  -0.163685  -0.411767  0  2.052479  0
O  O39  1  0.03132393  0.44557059  0.15644992  1  0  -0.46371  0  1.83176  0  0  -0.422749  0  2.050364  0  0  -0.439025  0  2.047232  0  0  -0.163752  -0.411861  0  2.05265  0
O  O40  1  0.67681001  0.50611380  0.90554770  1  0  -0.357309  0  1.763026  0  0  -0.338484  0  1.958172  0  0  -0.348422  0  1.954207  0  0  -0.132432  -0.331965  0  1.96105  0
O  O41  1  0.32321048  0.49387794  0.09445244  1  0  -0.366328  0  1.750249  0  0  -0.33857  0  1.957776  0  0  -0.348541  0  1.953843  0  0  -0.13249  -0.332051  0  1.960654  0
O  O42  1  0.25722017  0.44628518  0.69197682  1  0  -0.846451  0  1.872707  0  0  -0.787074  0  2.070946  0  0  -0.809105  0  2.038373  0  0  -0.585125  -0.771359  0  2.093559  0
O  O43  1  0.74277495  0.55371091  0.30802065  1  0  -0.846504  0  1.872616  0  0  -0.787123  0  2.070891  0  0  -0.809154  0  2.038313  0  0  -0.585102  -0.771406  0  2.093501  0
O  O44  1  0.33059590  0.76771140  0.38373464  1  0  -0.840051  0  1.878103  0  0  -0.776871  0  2.081324  0  0  -0.80016  0  2.04556  0  0  -0.587826  -0.760362  0  2.106394  0
O  O45  1  0.66939850  0.23228302  0.61626427  1  0  -0.840108  0  1.87805  0  0  -0.776919  0  2.081288  0  0  -0.80021  0  2.045524  0  0  -0.587844  -0.760397  0  2.106388  0
