# generated using pymatgen
data_Zn4H10C24Br2O13
_symmetry_space_group_name_H-M   'P 1'
_cell_length_a   10.83939518
_cell_length_b   10.85911423
_cell_length_c   15.64940962
_cell_angle_alpha   68.34484171
_cell_angle_beta   89.40051678
_cell_angle_gamma   83.77526072
_symmetry_Int_Tables_number   1
_chemical_formula_structural   Zn4H10C24Br2O13
_chemical_formula_sum   'Zn4 H10 C24 Br2 O13'
_cell_volume   1701.06106689
_cell_formula_units_Z   1
loop_
 _symmetry_equiv_pos_site_id
 _symmetry_equiv_pos_as_xyz
  1  'x, y, z'
loop_
 _atom_site_type_symbol
 _atom_site_label
 _atom_site_symmetry_multiplicity
 _atom_site_fract_x
 _atom_site_fract_y
 _atom_site_fract_z
 _atom_site_occupancy
 _atom_site_pbe_bader_charge
 _atom_site_pbe_bader_spin_density
 _atom_site_pbe_cm5_charge
 _atom_site_pbe_ddec_charge
 _atom_site_pbe_ddec_spin_density
 _atom_site_pbe_ddec_sum_bond_order
 _atom_site_pbe_magmom
Zn  Zn0  1  0.60178206  0.55287910  0.58500336  1  1.313296  0  0.672566  0.957536  0  2.392346  0
Zn  Zn1  1  0.61093256  0.41440489  0.43370525  1  1.312018  0  0.672204  0.95876  0  2.368541  0
Zn  Zn2  1  0.40150910  0.64845648  0.41299845  1  1.317559  0  0.675551  0.97744  0  2.339844  0
Zn  Zn3  1  0.40290432  0.36701012  0.58942962  1  1.310918  0  0.669635  0.960971  0  2.374175  0
H  H4  1  0.54078163  0.93620462  0.61664693  1  0.120683  0  0.118653  0.138314  0  0.975695  0
H  H5  1  0.48147652  0.05002430  0.40707497  1  0.147838  0  0.11628  0.136826  0  0.980205  0
H  H6  1  0.00379124  0.57235469  0.38926367  1  0.102883  0  0.120181  0.142094  0  0.965929  0
H  H7  1  0.01411260  0.39171220  0.59559147  1  0.171168  0  0.123407  0.144424  0  0.963324  0
H  H8  1  0.51921989  0.82711273  0.81939087  1  0.082759  0  0.106068  0.108151  0  0.989576  0
H  H9  1  0.54013451  0.89655226  0.94669480  1  0.070597  0  0.106009  0.119301  0  0.995445  0
H  H10  1  0.49634871  0.44345092  0.16938906  1  0.12013  0  0.089352  0.099957  0  1.08838  0
H  H11  1  0.37918483  0.21382361  0.87312296  1  0.076637  0  0.11189  0.119524  0  0.979646  0
H  H12  1  0.34303620  0.16334641  0.03920545  1  0.112556  0  0.101333  0.114039  0  1.00939  0
H  H13  1  0.49748957  0.65227109  0.75826376  1  0.135823  0  0.10434  0.115676  0  1.028084  0
C  C14  1  0.52387440  0.15284183  0.53654360  1  1.580215  0  0.227315  0.647752  0  4.165539  0
C  C15  1  0.49801978  0.54305588  0.11840137  1  -0.029965  0  -0.084284  -0.126394  0  3.939482  0
C  C16  1  0.52759805  0.77263309  0.08884925  1  -0.114326  0  -0.011416  0.100237  0  3.973087  0
C  C17  1  0.49860359  0.83422503  0.48728422  1  1.566346  0  0.226592  0.649434  0  4.166117  0
C  C18  1  0.44239204  0.40341495  0.85052454  1  -0.000727  0  -0.014645  -0.084708  0  3.934886  0
C  C19  1  0.50285283  0.97560278  0.47595026  1  -0.017438  0  -0.076343  -0.176519  0  3.885188  0
C  C20  1  0.52607667  0.01093124  0.54713202  1  -0.074504  0  -0.071514  -0.161644  0  3.879377  0
C  C21  1  0.04302830  0.51024174  0.45739649  1  0.049224  0  -0.081256  -0.19137  0  3.890821  0
C  C22  1  0.97228615  0.44651712  0.52698531  1  -0.121586  0  -0.067462  -0.152376  0  3.875177  0
C  C23  1  0.83465581  0.45724774  0.51937506  1  1.540822  0  0.230308  0.650436  0  4.164433  0
C  C24  1  0.17837568  0.50846515  0.47276642  1  1.570322  0  0.226268  0.65055  0  4.16437  0
C  C25  1  0.37905630  0.25587414  0.99749224  1  0.065383  0  -0.101483  -0.146915  0  4.052833  0
C  C26  1  0.51882515  0.60281646  0.25397646  1  1.601291  0  0.226832  0.618535  0  4.164008  0
C  C27  1  0.46624799  0.42230642  0.75242577  1  1.550429  0  0.228854  0.608891  0  4.158572  0
C  C28  1  0.52416743  0.79834133  0.99562219  1  0.077422  0  -0.096643  -0.192816  0  3.980379  0
C  C29  1  0.51673729  0.64226494  0.15175854  1  0.045118  0  -0.020158  -0.069962  0  3.959948  0
C  C30  1  0.39880252  0.28432825  0.90440735  1  -0.029926  0  -0.079744  -0.068616  0  3.996386  0
C  C31  1  0.40446134  0.34527215  0.03781530  1  -0.133813  0  -0.004152  0.080719  0  3.886936  0
C  C32  1  0.45146656  0.46856718  0.98727314  1  0.026025  0  0.001297  -0.012146  0  3.880408  0
C  C33  1  0.46472619  0.49885059  0.88977480  1  -0.027418  0  0.007808  0.080583  0  3.926405  0
C  C34  1  0.48205678  0.56774459  0.02400653  1  0.002697  0  -0.002826  0.040097  0  3.928326  0
C  C35  1  0.50201650  0.69836376  0.96194113  1  -0.036662  0  -0.001655  0.098908  0  4.012899  0
C  C36  1  0.50405830  0.72671384  0.86550485  1  -0.099614  0  -0.087424  -0.125271  0  4.015655  0
C  C37  1  0.49086922  0.62993634  0.83167024  1  -0.037373  0  -0.090223  -0.125912  0  4.002226  0
Br  Br38  1  0.55903557  0.91282561  0.12814835  1  -0.050759  0  0.023234  -0.063101  0  1.401856  0
Br  Br39  1  0.35718821  0.28777157  0.16393507  1  -0.063678  0  0.043024  -0.052566  0  1.416436  0
O  O40  1  0.50358326  0.49678407  0.50441688  1  -1.234633  0  -0.572825  -1.034585  0  2.538937  0
O  O41  1  0.58276323  0.49251189  0.30019654  1  -1.16787  0  -0.312528  -0.532015  0  2.316301  0
O  O42  1  0.39447482  0.37047490  0.71404505  1  -1.151322  0  -0.315512  -0.547608  0  2.322746  0
O  O43  1  0.45339663  0.67905793  0.28625596  1  -1.173295  0  -0.312821  -0.550046  0  2.37195  0
O  O44  1  0.55836059  0.48378323  0.71502402  1  -1.17554  0  -0.310369  -0.540167  0  2.359111  0
O  O45  1  0.77804233  0.49244741  0.58011137  1  -1.159739  0  -0.314017  -0.542727  0  2.29076  0
O  O46  1  0.23146492  0.41007833  0.53996420  1  -1.169064  0  -0.317065  -0.552789  0  2.321339  0
O  O47  1  0.57517230  0.22892349  0.46606402  1  -1.171541  0  -0.309833  -0.538153  0  2.303795  0
O  O48  1  0.42866885  0.81459988  0.42950962  1  -1.163024  0  -0.313005  -0.543188  0  2.291604  0
O  O49  1  0.47009924  0.18515131  0.59957717  1  -1.162411  0  -0.319563  -0.552253  0  2.272958  0
O  O50  1  0.56518206  0.74612409  0.55290565  1  -1.178801  0  -0.316532  -0.552661  0  2.316123  0
O  O51  1  0.78645986  0.43085597  0.45518728  1  -1.157169  0  -0.308032  -0.535987  0  2.289912  0
O  O52  1  0.22863408  0.60739444  0.41712682  1  -1.167963  0  -0.315671  -0.546662  0  2.279088  0
