# generated using pymatgen
data_ZnH12C16(NO4)2
_symmetry_space_group_name_H-M   'P 1'
_cell_length_a   6.97956680
_cell_length_b   7.86359124
_cell_length_c   8.19550947
_cell_angle_alpha   110.35181602
_cell_angle_beta   94.28565412
_cell_angle_gamma   98.62083671
_symmetry_Int_Tables_number   1
_chemical_formula_structural   ZnH12C16(NO4)2
_chemical_formula_sum   'Zn1 H12 C16 N2 O8'
_cell_volume   413.03914755
_cell_formula_units_Z   1
loop_
 _symmetry_equiv_pos_site_id
 _symmetry_equiv_pos_as_xyz
  1  'x, y, z'
loop_
 _atom_site_type_symbol
 _atom_site_label
 _atom_site_symmetry_multiplicity
 _atom_site_fract_x
 _atom_site_fract_y
 _atom_site_fract_z
 _atom_site_occupancy
 _atom_site_pbe_bader_spin_density
 _atom_site_pbe_cm5_charge
 _atom_site_pbe_ddec_charge
 _atom_site_pbe_ddec_spin_density
 _atom_site_pbe_ddec_sum_bond_order
 _atom_site_pbe_magmom
Zn  Zn0  1  0.07166106  0.91806488  0.45573506  1  0  0.678871  0.941371  0  2.259272  0
H  H1  1  0.67998796  0.60418122  0.28757821  1  0  0.132214  0.125209  0  1.031529  0
H  H2  1  0.87627931  0.39817638  0.38008134  1  0  0.120786  0.144503  0  0.990261  0
H  H3  1  0.37792918  0.95379221  0.15560739  1  0  0.118143  0.131831  0  1.001483  0
H  H4  1  0.20663565  0.17317009  0.05910252  1  0  0.130108  0.113628  0  1.030495  0
H  H5  1  0.22574179  0.43040645  0.00348072  1  0  0.128282  0.145144  0  0.969153  0
H  H6  1  0.43337119  0.61627105  0.09293213  1  0  0.122438  0.134583  0  1.013403  0
H  H7  1  0.94582757  0.64683748  0.99068047  1  0  0.127093  0.116438  0  1.033004  0
H  H8  1  0.79722001  0.30817193  0.88724156  1  0  0.113544  0.130637  0  1.027576  0
H  H9  1  0.33191969  0.41342001  0.57840723  1  0  0.122771  0.149916  0  0.992194  0
H  H10  1  0.49845606  0.74754981  0.69022238  1  0  0.135147  0.132186  0  1.003809  0
H  H11  1  0.91845395  0.93022167  0.02300060  1  0  0.125451  0.130992  0  0.983533  0
H  H12  1  0.70510906  0.98122207  0.92780760  1  0  0.124201  0.138519  0  1.021017  0
C  C13  1  0.62394716  0.45847155  0.26075091  1  0  0.069274  0.044785  0  3.799773  0
C  C14  1  0.72806796  0.34370461  0.31045146  1  0  -0.063688  -0.124401  0  3.901166  0
C  C15  1  0.64149320  0.15866447  0.26976752  1  0  0.018668  0.027086  0  3.90373  0
C  C16  1  0.44968887  0.09564142  0.18416199  1  0  -0.056969  -0.095891  0  3.910289  0
C  C17  1  0.35224039  0.21382559  0.13447754  1  0  0.0757  0.065784  0  3.7962  0
C  C18  1  0.33041143  0.51374178  0.12110879  1  0  -0.054984  -0.252116  0  3.82625  0
C  C19  1  0.22384823  0.61874036  0.27142803  1  0  0.207058  0.607341  0  4.199447  0
C  C20  1  0.75286211  0.02350305  0.30970212  1  0  0.203402  0.555271  0  4.251553  0
C  C21  1  0.81242539  0.58579909  0.89678188  1  0  0.067013  0.049048  0  3.803366  0
C  C22  1  0.72640204  0.40152989  0.84248301  1  0  -0.068693  -0.129471  0  3.935059  0
C  C23  1  0.55024031  0.33629920  0.72847469  1  0  0.018429  0.030943  0  3.895493  0
C  C24  1  0.46685198  0.45960897  0.66988304  1  0  -0.064865  -0.13115  0  3.917703  0
C  C25  1  0.55702957  0.64330135  0.72794736  1  0  0.073627  0.058  0  3.775641  0
C  C26  1  0.81981008  0.89781907  0.90144143  1  0  -0.056999  -0.256908  0  3.843868  0
C  C27  1  0.93350812  0.95361345  0.76933329  1  0  0.208887  0.615396  0  4.195597  0
C  C28  1  0.44563151  0.13734334  0.67363285  1  0  0.211153  0.583369  0  4.231387  0
N  N29  1  0.44082488  0.39055606  0.17104908  1  0  -0.204371  0.127391  0  3.764662  0
N  N30  1  0.72632142  0.70280276  0.84081512  1  0  -0.204132  0.137514  0  3.750313  0
O  O31  1  0.12869822  0.73218674  0.23241487  1  0  -0.332406  -0.5824  0  2.294766  0
O  O32  1  0.23600234  0.59397813  0.41275863  1  0  -0.306092  -0.533682  0  2.144435  0
O  O33  1  0.92680480  0.09337348  0.39237697  1  0  -0.322098  -0.548139  0  2.288783  0
O  O34  1  0.67267701  0.85664165  0.25496050  1  0  -0.314973  -0.552164  0  2.189161  0
O  O35  1  0.92607030  0.82880202  0.61694545  1  0  -0.322229  -0.559253  0  2.316833  0
O  O36  1  0.02095801  0.11771095  0.82309579  1  0  -0.319198  -0.554199  0  2.149588  0
O  O37  1  0.32698773  0.08386317  0.53061442  1  0  -0.326324  -0.57103  0  2.409746  0
O  O38  1  0.48032340  0.04856918  0.76891713  1  0  -0.314237  -0.546079  0  2.159947  0
