# generated using pymatgen
data_ZnH18C23(NO3)2
_symmetry_space_group_name_H-M   'P 1'
_cell_length_a   8.11157830
_cell_length_b   8.69901122
_cell_length_c   15.77603651
_cell_angle_alpha   102.72072744
_cell_angle_beta   92.51619576
_cell_angle_gamma   108.95411338
_symmetry_Int_Tables_number   1
_chemical_formula_structural   ZnH18C23(NO3)2
_chemical_formula_sum   'Zn2 H36 C46 N4 O12'
_cell_volume   1018.92941669
_cell_formula_units_Z   2
loop_
 _symmetry_equiv_pos_site_id
 _symmetry_equiv_pos_as_xyz
  1  'x, y, z'
loop_
 _atom_site_type_symbol
 _atom_site_label
 _atom_site_symmetry_multiplicity
 _atom_site_fract_x
 _atom_site_fract_y
 _atom_site_fract_z
 _atom_site_occupancy
 _atom_site_hle17_bader_spin_density
 _atom_site_hle17_ddec_charge
 _atom_site_hle17_ddec_spin_density
 _atom_site_hle17_ddec_sum_bond_order
 _atom_site_hle17_magmom
 _atom_site_hse06_10hf_bader_spin_density
 _atom_site_hse06_10hf_ddec_charge
 _atom_site_hse06_10hf_ddec_spin_density
 _atom_site_hse06_10hf_ddec_sum_bond_order
 _atom_site_hse06_10hf_magmom
 _atom_site_hse06_bader_spin_density
 _atom_site_hse06_ddec_charge
 _atom_site_hse06_ddec_spin_density
 _atom_site_hse06_ddec_sum_bond_order
 _atom_site_hse06_magmom
 _atom_site_pbe_bader_spin_density
 _atom_site_pbe_cm5_charge
 _atom_site_pbe_ddec_charge
 _atom_site_pbe_ddec_spin_density
 _atom_site_pbe_ddec_sum_bond_order
 _atom_site_pbe_magmom
Zn  Zn0  1  0.71732033  0.41990349  0.47352045  1  0  1.114397  0  1.733937  0  0  0.938842  0  2.192336  0  0  0.987492  0  2.134216  0  0  0.703251  0.904628  0  2.232459  0
Zn  Zn1  1  0.28267652  0.58009601  0.52647904  1  0  1.114354  0  1.733987  0  0  0.938797  0  2.192399  0  0  0.987448  0  2.134278  0  0  0.703233  0.904581  0  2.232518  0
H  H2  1  0.30504202  0.96260208  0.50749127  1  0  0.116621  0  0.954325  0  0  0.120955  0  1.027224  0  0  0.125489  0  1.022616  0  0  0.107546  0.117642  0  1.030594  0
H  H3  1  0.69495575  0.03739996  0.49250729  1  0  0.116615  0  0.954406  0  0  0.120899  0  1.027343  0  0  0.125432  0  1.022736  0  0  0.107527  0.117589  0  1.030702  0
H  H4  1  0.24844654  0.38716382  0.68613797  1  0  0.100848  0  0.966968  0  0  0.107554  0  1.035511  0  0  0.111035  0  1.033182  0  0  0.103324  0.104966  0  1.037302  0
H  H5  1  0.75155124  0.61283818  0.31386186  1  0  0.100878  0  0.966948  0  0  0.107576  0  1.035491  0  0  0.111057  0  1.033162  0  0  0.103347  0.104981  0  1.037295  0
H  H6  1  0.84711163  0.89807713  0.64161099  1  0  0.108458  0  0.943804  0  0  0.117743  0  1.008161  0  0  0.121767  0  1.004555  0  0  0.106858  0.114859  0  1.010717  0
H  H7  1  0.15288817  0.10192354  0.35838996  1  0  0.108461  0  0.94383  0  0  0.117744  0  1.008179  0  0  0.121766  0  1.00458  0  0  0.106853  0.11486  0  1.010736  0
H  H8  1  0.15492995  0.36972199  0.83217224  1  0  0.105468  0  0.953373  0  0  0.11692  0  1.012482  0  0  0.119961  0  1.011348  0  0  0.104889  0.114728  0  1.013474  0
H  H9  1  0.84506617  0.63027873  0.16782866  1  0  0.105528  0  0.953337  0  0  0.116961  0  1.012461  0  0  0.119999  0  1.011332  0  0  0.104896  0.11477  0  1.013454  0
H  H10  1  0.98150176  0.48984163  0.93532599  1  0  0.102586  0  0.961933  0  0  0.109362  0  1.029815  0  0  0.112964  0  1.026304  0  0  0.105257  0.106715  0  1.032409  0
H  H11  1  0.01849573  0.51016290  0.06467417  1  0  0.102598  0  0.961954  0  0  0.109383  0  1.029821  0  0  0.112981  0  1.026312  0  0  0.105285  0.106736  0  1.032415  0
H  H12  1  0.99998347  0.44047284  0.34810434  1  0  0.099686  0  0.946382  0  0  0.108724  0  1.006028  0  0  0.111478  0  1.003834  0  0  0.12308  0.106647  0  1.007726  0
H  H13  1  0.00001679  0.55952911  0.65189615  1  0  0.099626  0  0.946465  0  0  0.108661  0  1.006112  0  0  0.111414  0  1.003922  0  0  0.123072  0.106585  0  1.007812  0
H  H14  1  0.85246302  0.82799616  0.05501019  1  0  0.049981  0  0.929913  0  0  0.062305  0  1.003759  0  0  0.063122  0  1.003112  0  0  0.089573  0.061666  0  1.004304  0
H  H15  1  0.14754045  0.17200449  0.94499017  1  0  0.049986  0  0.929921  0  0  0.062322  0  1.003736  0  0  0.063141  0  1.00309  0  0  0.089566  0.061683  0  1.004281  0
H  H16  1  0.95746481  0.99094716  0.15088548  1  0  0.06357  0  0.936828  0  0  0.083863  0  0.99447  0  0  0.083348  0  0.996469  0  0  0.102373  0.084186  0  0.993137  0
H  H17  1  0.04253868  0.00905347  0.84911552  1  0  0.063636  0  0.936807  0  0  0.083879  0  0.99449  0  0  0.083364  0  0.996491  0  0  0.102385  0.084202  0  0.993154  0
H  H18  1  0.68886819  0.10851984  0.64600130  1  0  0.111246  0  0.940186  0  0  0.121732  0  1.00074  0  0  0.12476  0  0.999683  0  0  0.109823  0.119519  0  1.001639  0
H  H19  1  0.31113218  0.89147580  0.35399836  1  0  0.111213  0  0.940212  0  0  0.121722  0  1.000741  0  0  0.124748  0  0.999684  0  0  0.10982  0.11951  0  1.001641  0
H  H20  1  0.51542718  0.23119316  0.74871831  1  0  0.100863  0  0.957754  0  0  0.108886  0  1.022164  0  0  0.111245  0  1.021832  0  0  0.104404  0.10716  0  1.022459  0
H  H21  1  0.48457162  0.76880511  0.25127914  1  0  0.100875  0  0.957785  0  0  0.108863  0  1.022224  0  0  0.111228  0  1.021887  0  0  0.104416  0.107141  0  1.022519  0
H  H22  1  0.00796580  0.30176548  0.19163627  1  0  0.114892  0  0.95015  0  0  0.12246  0  1.010785  0  0  0.125843  0  1.00998  0  0  0.11023  0.120045  0  1.01151  0
H  H23  1  0.99203861  0.69823767  0.80836444  1  0  0.114792  0  0.950157  0  0  0.122328  0  1.010824  0  0  0.125708  0  1.010023  0  0  0.110149  0.119913  0  1.011547  0
H  H24  1  0.22222210  0.09190670  0.08016893  1  0  0.037492  0  0.917751  0  0  0.052043  0  0.985972  0  0  0.053848  0  0.98357  0  0  0.086257  0.050682  0  0.98779  0
H  H25  1  0.77778213  0.90809268  0.91983127  1  0  0.037448  0  0.917796  0  0  0.052036  0  0.98598  0  0  0.053844  0  0.983575  0  0  0.086245  0.050676  0  0.987796  0
H  H26  1  0.16768989  0.87292332  0.07498179  1  0  0.056308  0  0.960306  0  0  0.074406  0  1.024366  0  0  0.073485  0  1.026936  0  0  0.098571  0.075001  0  1.022665  0
H  H27  1  0.83231478  0.12707735  0.92501732  1  0  0.056299  0  0.96034  0  0  0.074417  0  1.024376  0  0  0.073495  0  1.026945  0  0  0.098586  0.07501  0  1.022676  0
H  H28  1  0.61581060  0.95530696  0.05796510  1  0  0.047237  0  0.92121  0  0  0.060931  0  0.990794  0  0  0.062432  0  0.989166  0  0  0.091249  0.059792  0  0.992014  0
H  H29  1  0.38419534  0.04469363  0.94203592  1  0  0.0473  0  0.921157  0  0  0.06096  0  0.990763  0  0  0.06246  0  0.989133  0  0  0.091245  0.05982  0  0.991985  0
H  H30  1  0.67223515  0.15615651  0.03588650  1  0  0.076952  0  0.917717  0  0  0.094379  0  0.979059  0  0  0.094977  0  0.978619  0  0  0.109922  0.093899  0  0.979439  0
H  H31  1  0.32776907  0.84384288  0.96411307  1  0  0.07698  0  0.91774  0  0  0.094402  0  0.979064  0  0  0.095  0  0.978624  0  0  0.109946  0.093924  0  0.979442  0
H  H32  1  0.46409176  0.19632882  0.32952800  1  0  0.089035  0  0.929057  0  0  0.099149  0  0.990402  0  0  0.101498  0  0.987928  0  0  0.1235  0.097371  0  0.992271  0
H  H33  1  0.53591075  0.80366936  0.67047076  1  0  0.089004  0  0.929062  0  0  0.099133  0  0.990381  0  0  0.101481  0  0.98791  0  0  0.123505  0.097353  0  0.99225  0
H  H34  1  0.44918126  0.04789594  0.17309576  1  0  0.099408  0  0.972441  0  0  0.108471  0  1.037112  0  0  0.110872  0  1.037944  0  0  0.103166  0.106729  0  1.036698  0
H  H35  1  0.55082494  0.95210216  0.82690367  1  0  0.09945  0  0.972279  0  0  0.108456  0  1.037045  0  0  0.110856  0  1.037878  0  0  0.103145  0.106712  0  1.036631  0
H  H36  1  0.40992766  0.45545472  0.93634558  1  0  0.391189  0  0.908274  0  0  0.358685  0  0.990651  0  0  0.372005  0  0.97345  0  0  0.299171  0.349336  0  1.000707  0
H  H37  1  0.59006287  0.54453495  0.06364680  1  0  0.391118  0  0.908355  0  0  0.358604  0  0.990739  0  0  0.371923  0  0.973561  0  0  0.299114  0.349254  0  1.000795  0
C  C38  1  0.03707046  0.15134171  0.67391612  1  0  0.038059  0  3.790258  0  0  0.055442  0  4.02985  0  0  0.052223  0  4.053242  0  0  -0.009257  0.057369  0  4.013876  0
C  C39  1  0.96292733  0.84866029  0.32608370  1  0  0.038095  0  3.790226  0  0  0.055435  0  4.029847  0  0  0.052215  0  4.05324  0  0  -0.009291  0.057363  0  4.013877  0
C  C40  1  0.99681740  0.73085455  0.52460828  1  0  0.64977  0  3.907967  0  0  0.593563  0  4.20318  0  0  0.628529  0  4.196992  0  0  0.211247  0.569811  0  4.206638  0
C  C41  1  0.00317918  0.26914743  0.47539280  1  0  0.649852  0  3.907831  0  0  0.593624  0  4.203108  0  0  0.628588  0  4.19692  0  0  0.211276  0.569872  0  4.206564  0
C  C42  1  0.23145258  0.01535475  0.55456829  1  0  -0.051603  0  3.654174  0  0  -0.091532  0  3.903996  0  0  -0.087843  0  3.922084  0  0  -0.071505  -0.093585  0  3.891722  0
C  C43  1  0.76854645  0.98464722  0.44543218  1  0  -0.051532  0  3.654279  0  0  -0.091395  0  3.904061  0  0  -0.087706  0  3.92215  0  0  -0.071466  -0.093447  0  3.891784  0
C  C44  1  0.29228195  0.18754352  0.59432688  1  0  -0.068077  0  3.752701  0  0  -0.038964  0  3.983953  0  0  -0.048992  0  4.007567  0  0  -0.019524  -0.032646  0  3.968084  0
C  C45  1  0.70771863  0.81245587  0.40567455  1  0  -0.068161  0  3.752756  0  0  -0.038989  0  3.983909  0  0  -0.049018  0  4.007523  0  0  -0.019479  -0.032671  0  3.968041  0
C  C46  1  0.07173848  0.91208973  0.57274379  1  0  -0.078708  0  3.777895  0  0  -0.05111  0  4.013131  0  0  -0.061989  0  4.039187  0  0  -0.022488  -0.044191  0  3.995642  0
C  C47  1  0.92825686  0.08791228  0.42725664  1  0  -0.078741  0  3.777828  0  0  -0.05118  0  4.013125  0  0  -0.062059  0  4.039181  0  0  -0.022487  -0.044259  0  3.995635  0
C  C48  1  0.19851598  0.25288579  0.65616144  1  0  -0.083836  0  3.669882  0  0  -0.119189  0  3.919083  0  0  -0.116644  0  3.93594  0  0  -0.074287  -0.120396  0  3.907544  0
C  C49  1  0.80148506  0.74711485  0.34384016  1  0  -0.08384  0  3.669912  0  0  -0.119198  0  3.919113  0  0  -0.116653  0  3.935976  0  0  -0.074327  -0.120397  0  3.907575  0
C  C50  1  0.93295309  0.22600733  0.73353899  1  0  0.082229  0  3.752662  0  0  0.094743  0  3.982955  0  0  0.097896  0  4.006378  0  0  0.007786  0.092773  0  3.967074  0
C  C51  1  0.06704455  0.77399085  0.26646159  1  0  0.082256  0  3.752552  0  0  0.094821  0  3.982793  0  0  0.097975  0  4.006215  0  0  0.007795  0.092851  0  3.966918  0
C  C52  1  0.97374931  0.98064224  0.63094964  1  0  -0.090209  0  3.680308  0  0  -0.12758  0  3.932865  0  0  -0.1253  0  3.950774  0  0  -0.076406  -0.128681  0  3.92056  0
C  C53  1  0.02624801  0.01935851  0.36905001  1  0  -0.090276  0  3.680275  0  0  -0.127608  0  3.932843  0  0  -0.125328  0  3.950751  0  0  -0.076405  -0.128708  0  3.920539  0
C  C54  1  0.44274095  0.30854085  0.56428315  1  0  0.653458  0  3.909256  0  0  0.602769  0  4.199016  0  0  0.637765  0  4.191868  0  0  0.203699  0.579029  0  4.203093  0
C  C55  1  0.55726008  0.69145981  0.43571781  1  0  0.653471  0  3.909235  0  0  0.602757  0  4.199005  0  0  0.637754  0  4.19186  0  0  0.203721  0.579018  0  4.203083  0
C  C56  1  0.01459919  0.33843607  0.81433639  1  0  -0.116156  0  3.723939  0  0  -0.134799  0  3.973908  0  0  -0.140278  0  3.995226  0  0  -0.085353  -0.131256  0  3.959493  0
C  C57  1  0.98539981  0.66156593  0.18566282  1  0  -0.116295  0  3.723999  0  0  -0.134932  0  3.973953  0  0  -0.140415  0  3.995277  0  0  -0.085378  -0.131382  0  3.959524  0
C  C58  1  0.91740937  0.40528774  0.87234724  1  0  -0.052907  0  3.74292  0  0  -0.081306  0  3.999429  0  0  -0.078057  0  4.017127  0  0  -0.079954  -0.08317  0  3.9874  0
C  C59  1  0.08259056  0.59471679  0.12765168  1  0  -0.052882  0  3.743016  0  0  -0.081295  0  3.999527  0  0  -0.078039  0  4.01722  0  0  -0.079994  -0.083158  0  3.987498  0
C  C60  1  0.63394054  0.42706918  0.91525442  1  0  0.653227  0  3.821454  0  0  0.602466  0  4.119074  0  0  0.637808  0  4.108352  0  0  0.233417  0.578399  0  4.125979  0
C  C61  1  0.36605644  0.57293418  0.08474304  1  0  0.653383  0  3.821333  0  0  0.602504  0  4.119108  0  0  0.637876  0  4.108351  0  0  0.233396  0.578431  0  4.126019  0
C  C62  1  0.73619152  0.36434379  0.84983010  1  0  -0.112405  0  3.813346  0  0  -0.090338  0  4.050771  0  0  -0.101671  0  4.074987  0  0  -0.029815  -0.082977  0  4.034453  0
C  C63  1  0.26380898  0.63565572  0.15016753  1  0  -0.112464  0  3.813343  0  0  -0.090343  0  4.050778  0  0  -0.101689  0  4.074988  0  0  -0.029791  -0.082979  0  4.034463  0
C  C64  1  0.88178321  0.35103640  0.30676059  1  0  0.137969  0  3.680593  0  0  0.105457  0  3.933697  0  0  0.112847  0  3.951793  0  0  0.051285  0.100699  0  3.921459  0
C  C65  1  0.11821829  0.64896552  0.69324054  1  0  0.138036  0  3.680549  0  0  0.105497  0  3.933647  0  0  0.112885  0  3.95174  0  0  0.051284  0.100735  0  3.921409  0
C  C66  1  0.72868457  0.16344795  0.16917389  1  0  0.14062  0  3.70643  0  0  0.153708  0  3.941662  0  0  0.159211  0  3.96344  0  0  0.015195  0.150214  0  3.926796  0
C  C67  1  0.27132092  0.83655137  0.83082759  1  0  0.140625  0  3.706454  0  0  0.153712  0  3.941643  0  0  0.159214  0  3.963421  0  0  0.015261  0.150216  0  3.926773  0
C  C68  1  0.94663791  0.95828101  0.07898937  1  0  -0.022033  0  3.682221  0  0  -0.078379  0  3.945226  0  0  -0.075454  0  3.957789  0  0  -0.071066  -0.08027  0  3.936423  0
C  C69  1  0.05336433  0.04171966  0.92101097  1  0  -0.022121  0  3.682352  0  0  -0.078421  0  3.945311  0  0  -0.075501  0  3.957881  0  0  -0.071077  -0.08031  0  3.936499  0
C  C70  1  0.75221184  0.18919084  0.71019688  1  0  -0.108659  0  3.689359  0  0  -0.126084  0  3.935528  0  0  -0.131325  0  3.956435  0  0  -0.081213  -0.122725  0  3.92151  0
C  C71  1  0.24778440  0.81080358  0.28980319  1  0  -0.10863  0  3.689422  0  0  -0.126079  0  3.935564  0  0  -0.131318  0  3.956471  0  0  -0.081182  -0.12272  0  3.92155  0
C  C72  1  0.65493142  0.25900727  0.76728668  1  0  -0.047964  0  3.723428  0  0  -0.072265  0  3.970109  0  0  -0.069889  0  3.990562  0  0  -0.077981  -0.073585  0  3.956227  0
C  C73  1  0.34506652  0.74098836  0.23271421  1  0  -0.047944  0  3.72348  0  0  -0.072234  0  3.97018  0  0  -0.06986  0  3.990631  0  0  -0.077986  -0.073559  0  3.956305  0
C  C74  1  0.88483559  0.27418854  0.21991983  1  0  -0.160099  0  3.700299  0  0  -0.177421  0  3.948867  0  0  -0.186067  0  3.970489  0  0  -0.081217  -0.171934  0  3.934477  0
C  C75  1  0.11517003  0.72581461  0.78008026  1  0  -0.16001  0  3.700197  0  0  -0.177281  0  3.948746  0  0  -0.185928  0  3.970375  0  0  -0.081177  -0.171792  0  3.93435  0
C  C76  1  0.12486234  0.96447019  0.05050116  1  0  -0.012389  0  3.69491  0  0  -0.070697  0  3.961621  0  0  -0.067  0  3.973204  0  0  -0.069516  -0.073146  0  3.953561  0
C  C77  1  0.87513866  0.03553051  0.94949854  1  0  -0.012373  0  3.694886  0  0  -0.070714  0  3.961588  0  0  -0.067015  0  3.973169  0  0  -0.069525  -0.073163  0  3.953524  0
C  C78  1  0.71931158  0.08207106  0.07341392  1  0  -0.042413  0  3.722911  0  0  -0.099924  0  3.979324  0  0  -0.096799  0  3.990057  0  0  -0.055734  -0.101886  0  3.971613  0
C  C79  1  0.28069285  0.91793205  0.92658804  1  0  -0.042443  0  3.722919  0  0  -0.099908  0  3.979282  0  0  -0.096781  0  3.990005  0  0  -0.055734  -0.101872  0  3.971577  0
C  C80  1  0.58112015  0.21496256  0.29613859  1  0  0.149868  0  3.693384  0  0  0.117571  0  3.941462  0  0  0.125771  0  3.959295  0  0  0.053608  0.112251  0  3.929407  0
C  C81  1  0.41888039  0.78503688  0.70386094  1  0  0.149862  0  3.693428  0  0  0.117538  0  3.941489  0  0  0.125737  0  3.959322  0  0  0.053599  0.112217  0  3.929432  0
C  C82  1  0.57449431  0.13425293  0.20921803  1  0  -0.179108  0  3.727951  0  0  -0.193556  0  3.969629  0  0  -0.202894  0  3.992479  0  0  -0.08817  -0.187562  0  3.954368  0
C  C83  1  0.42550747  0.86574648  0.79078214  1  0  -0.179074  0  3.727882  0  0  -0.193487  0  3.969589  0  0  -0.202825  0  3.992442  0  0  -0.088149  -0.187493  0  3.954326  0
N  N84  1  0.88528457  0.07647022  0.04496991  1  0  -0.230617  0  3.242303  0  0  -0.154861  0  3.505072  0  0  -0.169664  0  3.524628  0  0  -0.343972  -0.144195  0  3.490889  0
N  N85  1  0.11471691  0.92353173  0.95502996  1  0  -0.230751  0  3.242536  0  0  -0.15499  0  3.50525  0  0  -0.169788  0  3.524804  0  0  -0.343995  -0.144324  0  3.491071  0
N  N86  1  0.73244678  0.32151991  0.34450679  1  0  -0.34739  0  3.319464  0  0  -0.263257  0  3.593576  0  0  -0.284109  0  3.608914  0  0  -0.329069  -0.249262  0  3.583116  0
N  N87  1  0.26755422  0.67848078  0.65549291  1  0  -0.347438  0  3.31948  0  0  -0.263241  0  3.593549  0  0  -0.284091  0  3.608885  0  0  -0.329079  -0.249244  0  3.583085  0
O  O88  1  0.08623084  0.66485070  0.47432782  1  0  -0.649406  0  2.05735  0  0  -0.589126  0  2.325698  0  0  -0.614698  0  2.312834  0  0  -0.318345  -0.571234  0  2.334037  0
O  O89  1  0.91376774  0.33515000  0.52567311  1  0  -0.649463  0  2.057413  0  0  -0.589139  0  2.325723  0  0  -0.614719  0  2.312878  0  0  -0.318368  -0.57125  0  2.334063  0
O  O90  1  0.83955236  0.65303026  0.53752349  1  0  -0.632145  0  2.118269  0  0  -0.554133  0  2.389275  0  0  -0.584352  0  2.375926  0  0  -0.309514  -0.533091  0  2.397792  0
O  O91  1  0.16044452  0.34696919  0.46247725  1  0  -0.632095  0  2.118117  0  0  -0.554118  0  2.389182  0  0  -0.584339  0  2.375837  0  0  -0.309515  -0.533075  0  2.397695  0
O  O92  1  0.52525563  0.24374269  0.50639778  1  0  -0.640361  0  2.026074  0  0  -0.567584  0  2.294489  0  0  -0.597487  0  2.28005  0  0  -0.322591  -0.546576  0  2.303547  0
O  O93  1  0.47474492  0.75625674  0.49360237  1  0  -0.640307  0  2.026072  0  0  -0.567537  0  2.294502  0  0  -0.597442  0  2.280066  0  0  -0.322572  -0.546522  0  2.303546  0
O  O94  1  0.47764476  0.46398224  0.59348445  1  0  -0.644015  0  1.974176  0  0  -0.592255  0  2.216101  0  0  -0.616397  0  2.204011  0  0  -0.323986  -0.575245  0  2.223728  0
O  O95  1  0.52235582  0.53601715  0.40651697  1  0  -0.644045  0  1.97409  0  0  -0.592285  0  2.216032  0  0  -0.616424  0  2.203936  0  0  -0.324032  -0.575276  0  2.223659  0
O  O96  1  0.69633118  0.48662298  0.99448129  1  0  -0.578404  0  1.999792  0  0  -0.527738  0  2.221862  0  0  -0.550451  0  2.210454  0  0  -0.290383  -0.512186  0  2.228995  0
O  O97  1  0.30366667  0.51338298  0.00551335  1  0  -0.578506  0  1.999548  0  0  -0.527798  0  2.221658  0  0  -0.550523  0  2.210234  0  0  -0.290425  -0.512243  0  2.228792  0
O  O98  1  0.47340780  0.41284897  0.88528008  1  0  -0.542439  0  2.095375  0  0  -0.490972  0  2.310279  0  0  -0.512243  0  2.291889  0  0  -0.327324  -0.476269  0  2.321113  0
O  O99  1  0.52658433  0.58713805  0.11471515  1  0  -0.542439  0  2.095432  0  0  -0.490915  0  2.310385  0  0  -0.512194  0  2.292003  0  0  -0.327248  -0.476211  0  2.321223  0
