# generated using pymatgen
data_AlH4C7BrO5
_symmetry_space_group_name_H-M   'P 1'
_cell_length_a   6.69192567
_cell_length_b   12.60447654
_cell_length_c   17.55659492
_cell_angle_alpha   90.00101160
_cell_angle_beta   90.00106207
_cell_angle_gamma   98.51312828
_symmetry_Int_Tables_number   1
_chemical_formula_structural   AlH4C7BrO5
_chemical_formula_sum   'Al4 H16 C28 Br4 O20'
_cell_volume   1464.55128799
_cell_formula_units_Z   4
loop_
 _symmetry_equiv_pos_site_id
 _symmetry_equiv_pos_as_xyz
  1  'x, y, z'
loop_
 _atom_site_type_symbol
 _atom_site_label
 _atom_site_symmetry_multiplicity
 _atom_site_fract_x
 _atom_site_fract_y
 _atom_site_fract_z
 _atom_site_occupancy
 _atom_site_pbe_bader_charge
 _atom_site_pbe_bader_spin_density
 _atom_site_pbe_cm5_charge
 _atom_site_pbe_ddec_charge
 _atom_site_pbe_ddec_spin_density
 _atom_site_pbe_ddec_sum_bond_order
 _atom_site_pbe_magmom
Al  Al0  1  0.18362872  0.76496098  0.74999372  1  2.487242  0  0.396145  1.659062  0  2.571356  0
Al  Al1  1  0.81580034  0.23502235  0.24999299  1  2.486631  0  0.393672  1.658482  0  2.576183  0
Al  Al2  1  0.68155336  0.76023853  0.74999143  1  2.482544  0  0.397769  1.651193  0  2.564031  0
Al  Al3  1  0.31771072  0.23886762  0.24999243  1  2.484112  0  0.396881  1.648199  0  2.570916  0
H  H4  1  0.18015243  0.97962075  0.92563846  1  0.103658  0  0.108164  0.111656  0  1.004783  0
H  H5  1  0.82227452  0.02381788  0.07309120  1  0.093145  0  0.108334  0.112508  0  1.002897  0
H  H6  1  0.82227335  0.02381989  0.42691380  1  0.09304  0  0.10833  0.112506  0  1.003042  0
H  H7  1  0.18013167  0.97959478  0.57432546  1  0.103128  0  0.108213  0.111665  0  1.004835  0
H  H8  1  0.20788628  0.08010305  0.05004339  1  0.077817  0  0.107591  0.112065  0  1.000968  0
H  H9  1  0.79469455  0.92326424  0.94872159  1  0.105595  0  0.109385  0.113931  0  1.001742  0
H  H10  1  0.79468323  0.92326405  0.55127778  1  0.105467  0  0.109354  0.113874  0  1.001579  0
H  H11  1  0.20788472  0.08010494  0.44994041  1  0.077946  0  0.107588  0.112028  0  1.001003  0
H  H12  1  0.27291672  0.45278691  0.05608415  1  0.099655  0  0.095645  0.123185  0  1.06212  0
H  H13  1  0.72627698  0.54796208  0.94442658  1  0.132003  0  0.094337  0.121752  0  1.067245  0
H  H14  1  0.72627956  0.54796276  0.55555106  1  0.131642  0  0.094281  0.121653  0  1.067229  0
H  H15  1  0.27290404  0.45279268  0.44391334  1  0.099741  0  0.095739  0.123299  0  1.062082  0
H  H16  1  0.38722980  0.62054972  0.75010116  1  0.595422  0  0.343723  0.422775  0  0.87019  0
H  H17  1  0.61038698  0.37935867  0.25010597  1  0.594356  0  0.357909  0.438772  0  0.837772  0
H  H18  1  0.96611095  0.90459245  0.75003091  1  0.603558  0  0.359563  0.438383  0  0.839556  0
H  H19  1  0.03207168  0.09480027  0.25004863  1  0.598219  0  0.359621  0.439488  0  0.836789  0
C  C20  1  0.46793783  0.88437357  0.85722582  1  1.587177  0  0.271468  0.646363  0  4.089191  0
C  C21  1  0.53270178  0.11606801  0.14249889  1  1.582407  0  0.267498  0.639593  0  4.10396  0
C  C22  1  0.53270618  0.11605991  0.35748363  1  1.582212  0  0.267335  0.639004  0  4.104055  0
C  C23  1  0.46788788  0.88433849  0.64275143  1  1.586992  0  0.271506  0.646503  0  4.088717  0
C  C24  1  0.51607819  0.05650437  0.06875579  1  -0.046532  0  -0.012914  -0.041354  0  3.974645  0
C  C25  1  0.48591089  0.94604379  0.93018689  1  -0.046749  0  -0.009573  -0.035833  0  3.959033  0
C  C26  1  0.48587754  0.94602658  0.56979183  1  -0.046172  0  -0.009529  -0.035946  0  3.959177  0
C  C27  1  0.51608442  0.05649523  0.43123724  1  -0.046069  0  -0.012945  -0.041245  0  3.974554  0
C  C28  1  0.31976428  0.98979507  0.95850016  1  -0.062809  0  -0.079044  -0.091823  0  3.968736  0
C  C29  1  0.68266920  0.01348772  0.04021696  1  0.009157  0  -0.079905  -0.09132  0  3.971909  0
C  C30  1  0.68267252  0.01348425  0.45977725  1  0.009064  0  -0.079936  -0.091385  0  3.972164  0
C  C31  1  0.31973400  0.98977780  0.54147682  1  -0.06232  0  -0.079127  -0.091762  0  3.9693  0
C  C32  1  0.89934888  0.63338686  0.64655162  1  1.590289  0  0.25829  0.69859  0  4.087108  0
C  C33  1  0.09806382  0.35910014  0.35700577  1  1.612396  0  0.259276  0.701568  0  4.083918  0
C  C34  1  0.09806227  0.35910261  0.14299332  1  1.611825  0  0.259312  0.701602  0  4.08389  0
C  C35  1  0.89938047  0.63340584  0.85344538  1  1.590599  0  0.258315  0.698686  0  4.086774  0
C  C36  1  0.33478881  0.04488883  0.02737577  1  0.002496  0  -0.080113  -0.091553  0  3.969343  0
C  C37  1  0.66763406  0.95837312  0.97134079  1  -0.036154  0  -0.079642  -0.091696  0  3.967825  0
C  C38  1  0.66761947  0.95837067  0.52865187  1  -0.035876  0  -0.079622  -0.091596  0  3.967834  0
C  C39  1  0.33477984  0.04487696  0.47260903  1  0.001708  0  -0.080152  -0.091574  0  3.969719  0
C  C40  1  0.87708153  0.55979909  0.91943144  1  0.025787  0  -0.099859  -0.282287  0  3.8638  0
C  C41  1  0.11762789  0.42074780  0.07110740  1  0.025002  0  -0.099229  -0.283114  0  3.86407  0
C  C42  1  0.11763933  0.42073134  0.42889659  1  0.023219  0  -0.099337  -0.283137  0  3.864326  0
C  C43  1  0.87707441  0.55978288  0.58056675  1  0.025865  0  -0.099731  -0.282056  0  3.863886  0
C  C44  1  0.01532211  0.50670562  0.95274893  1  -0.100206  0  -0.00466  0.100819  0  3.935496  0
C  C45  1  0.97217875  0.44038042  0.02175011  1  -0.079123  0  -0.005285  0.099005  0  3.937557  0
C  C46  1  0.97217883  0.44033735  0.47825492  1  -0.077408  0  -0.005268  0.099042  0  3.937383  0
C  C47  1  0.01531456  0.50667317  0.54726142  1  -0.100496  0  -0.004776  0.100566  0  3.935452  0
Br  Br48  1  0.69413989  0.38591466  0.03746483  1  0.005954  0  0.088057  0.014457  0  1.562213  0
Br  Br49  1  0.28377655  0.51480366  0.91458932  1  -0.002632  0  0.081541  0.003437  0  1.564142  0
Br  Br50  1  0.28375487  0.51478284  0.58542755  1  -0.002436  0  0.08158  0.003589  0  1.564291  0
Br  Br51  1  0.69415037  0.38583334  0.46255239  1  0.006031  0  0.088104  0.014418  0  1.562272  0
O  O52  1  0.62936996  0.85796107  0.67056416  1  -1.261921  0  -0.236718  -0.59711  0  2.344691  0
O  O53  1  0.37068034  0.14137463  0.32940033  1  -1.262266  0  -0.237837  -0.597391  0  2.350852  0
O  O54  1  0.37069311  0.14139070  0.17058366  1  -1.262749  0  -0.23786  -0.597525  0  2.350932  0
O  O55  1  0.62941320  0.85795761  0.82943836  1  -1.262171  0  -0.236808  -0.597183  0  2.344281  0
O  O56  1  0.29189377  0.86263713  0.82828780  1  -1.262743  0  -0.237084  -0.597133  0  2.342997  0
O  O57  1  0.70824080  0.13717370  0.17188801  1  -1.266443  0  -0.237988  -0.600267  0  2.357771  0
O  O58  1  0.70824594  0.13715269  0.32809370  1  -1.266798  0  -0.237834  -0.599937  0  2.357689  0
O  O59  1  0.29181478  0.86254922  0.67165150  1  -1.263102  0  -0.237048  -0.597151  0  2.342632  0
O  O60  1  0.07450169  0.66553263  0.82722808  1  -1.252284  0  -0.235956  -0.59644  0  2.405486  0
O  O61  1  0.92446389  0.33345271  0.17240206  1  -1.256919  0  -0.237151  -0.600215  0  2.402108  0
O  O62  1  0.92445879  0.33344779  0.32759445  1  -1.257033  0  -0.237166  -0.600314  0  2.402132  0
O  O63  1  0.07444978  0.66546552  0.67280747  1  -1.251986  0  -0.235967  -0.596348  0  2.405583  0
O  O64  1  0.41334036  0.69816347  0.75000264  1  -1.399615  0  -0.450765  -0.999248  0  2.234488  0
O  O65  1  0.58564268  0.30176154  0.25000116  1  -1.395256  0  -0.448772  -0.99636  0  2.214842  0
O  O66  1  0.73378212  0.65938663  0.67180383  1  -1.240696  0  -0.241091  -0.592734  0  2.288397  0
O  O67  1  0.26447274  0.33740264  0.32947696  1  -1.240039  0  -0.241694  -0.594695  0  2.287164  0
O  O68  1  0.26446917  0.33739871  0.17051618  1  -1.239869  0  -0.241715  -0.594631  0  2.287302  0
O  O69  1  0.73380376  0.65936073  0.82816273  1  -1.240548  0  -0.241052  -0.592733  0  2.288494  0
O  O70  1  0.94867804  0.82700329  0.74999163  1  -1.405688  0  -0.446476  -0.99521  0  2.202604  0
O  O71  1  0.05048171  0.17239888  0.24998994  1  -1.39999  0  -0.446893  -0.993415  0  2.200507  0
