# generated using pymatgen
data_KZnH3C9(NO2)3
_symmetry_space_group_name_H-M   'P 1'
_cell_length_a   9.27149704
_cell_length_b   9.27150302
_cell_length_c   13.26825318
_cell_angle_alpha   89.99999149
_cell_angle_beta   90.00004217
_cell_angle_gamma   108.98504361
_symmetry_Int_Tables_number   1
_chemical_formula_structural   KZnH3C9(NO2)3
_chemical_formula_sum   'K4 Zn4 H12 C36 N12 O24'
_cell_volume   1078.50668752
_cell_formula_units_Z   4
loop_
 _symmetry_equiv_pos_site_id
 _symmetry_equiv_pos_as_xyz
  1  'x, y, z'
loop_
 _atom_site_type_symbol
 _atom_site_label
 _atom_site_symmetry_multiplicity
 _atom_site_fract_x
 _atom_site_fract_y
 _atom_site_fract_z
 _atom_site_occupancy
 _atom_site_pbe_bader_spin_density
 _atom_site_pbe_cm5_charge
 _atom_site_pbe_ddec_charge
 _atom_site_pbe_ddec_spin_density
 _atom_site_pbe_ddec_sum_bond_order
 _atom_site_pbe_magmom
K  K0  1  0.09037901  0.90962116  0.38815054  1  0  0.762763  0.875924  0  0.636603  0
K  K1  1  0.90961865  0.09038078  0.88814879  1  0  0.762768  0.875932  0  0.636629  0
K  K2  1  0.09037956  0.90962000  0.11185042  1  0  0.762759  0.875914  0  0.63664  0
K  K3  1  0.90961920  0.09037962  0.61185168  1  0  0.762758  0.875918  0  0.636648  0
Zn  Zn4  1  0.33524810  0.29626188  0.25000058  1  0  0.688179  0.726418  0  2.37796  0
Zn  Zn5  1  0.66475011  0.70373890  0.75000014  1  0  0.688184  0.726408  0  2.377904  0
Zn  Zn6  1  0.70373768  0.66475057  0.24999990  1  0  0.688169  0.726359  0  2.377944  0
Zn  Zn7  1  0.29626231  0.33524907  0.75000007  1  0  0.688205  0.726458  0  2.377925  0
H  H8  1  0.73875493  0.02652183  0.25000069  1  0  0.127105  0.139939  0  1.024963  0
H  H9  1  0.26124435  0.97347894  0.75000003  1  0  0.127089  0.139905  0  1.02498  0
H  H10  1  0.97347860  0.26124472  0.24999999  1  0  0.127103  0.139923  0  1.024961  0
H  H11  1  0.02652139  0.73875491  0.74999998  1  0  0.127101  0.139918  0  1.024958  0
H  H12  1  0.16831695  0.59290719  0.97416744  1  0  0.122449  0.137903  0  1.01388  0
H  H13  1  0.83168366  0.40709362  0.47416736  1  0  0.122427  0.137862  0  1.013924  0
H  H14  1  0.40709329  0.83168386  0.52583190  1  0  0.122448  0.137905  0  1.013878  0
H  H15  1  0.59290753  0.16831573  0.02583248  1  0  0.12243  0.137868  0  1.013913  0
H  H16  1  0.83168304  0.40709245  0.02583178  1  0  0.122443  0.137886  0  1.013894  0
H  H17  1  0.16831670  0.59290715  0.52583185  1  0  0.122443  0.137891  0  1.013901  0
H  H18  1  0.59290707  0.16831691  0.47416731  1  0  0.122434  0.137885  0  1.013894  0
H  H19  1  0.40709209  0.83168276  0.97416824  1  0  0.12245  0.137897  0  1.013879  0
C  C20  1  0.58845739  0.16258263  0.24999989  1  0  0.131152  0.083071  0  3.914658  0
C  C21  1  0.41154115  0.83741587  0.75000007  1  0  0.131108  0.08294  0  3.914743  0
C  C22  1  0.83741773  0.41154229  0.24999995  1  0  0.1311  0.08299  0  3.914681  0
C  C23  1  0.16258334  0.58845734  0.75000077  1  0  0.131145  0.082966  0  3.914655  0
C  C24  1  0.73089115  0.14096349  0.25000069  1  0  -0.029916  -0.040236  0  3.819485  0
C  C25  1  0.26910814  0.85903729  0.75000003  1  0  -0.029902  -0.040162  0  3.819472  0
C  C26  1  0.85903543  0.26910816  0.24999996  1  0  -0.029901  -0.040134  0  3.819475  0
C  C27  1  0.14096348  0.73089147  0.75000001  1  0  -0.029902  -0.040138  0  3.819441  0
C  C28  1  0.44097892  0.02868310  0.25000062  1  0  0.205138  0.542321  0  4.269944  0
C  C29  1  0.55902107  0.97131653  0.75000010  1  0  0.205303  0.542576  0  4.269844  0
C  C30  1  0.97131607  0.55902161  0.24999997  1  0  0.20517  0.542331  0  4.2699  0
C  C31  1  0.02868500  0.44097802  0.74999999  1  0  0.205195  0.542364  0  4.269882  0
C  C32  1  0.27243336  0.47879144  0.07870219  1  0  0.133971  0.101007  0  3.91385  0
C  C33  1  0.72756644  0.52120816  0.57870256  1  0  0.134006  0.100994  0  3.913894  0
C  C34  1  0.52120733  0.72756662  0.42129745  1  0  0.134013  0.101005  0  3.913936  0
C  C35  1  0.47879140  0.27243190  0.92129697  1  0  0.133997  0.101004  0  3.913919  0
C  C36  1  0.72756663  0.52120819  0.92129702  1  0  0.134025  0.100998  0  3.913924  0
C  C37  1  0.27243247  0.47879147  0.42129816  1  0  0.133964  0.100986  0  3.913959  0
C  C38  1  0.47879304  0.27243416  0.57870251  1  0  0.134019  0.101005  0  3.91391  0
C  C39  1  0.52120822  0.72756659  0.07870224  1  0  0.133972  0.100966  0  3.913953  0
C  C40  1  0.27077293  0.60092578  0.01708593  1  0  -0.040693  -0.064036  0  3.844292  0
C  C41  1  0.72923042  0.39907495  0.51708632  1  0  -0.040674  -0.063977  0  3.844246  0
C  C42  1  0.39907459  0.72922768  0.48291367  1  0  -0.040695  -0.064035  0  3.844311  0
C  C43  1  0.60092454  0.27076857  0.98291325  1  0  -0.040692  -0.063996  0  3.84425  0
C  C44  1  0.72922922  0.39907385  0.98291328  1  0  -0.040664  -0.063977  0  3.844263  0
C  C45  1  0.27077103  0.60092582  0.48291365  1  0  -0.040684  -0.064006  0  3.844295  0
C  C46  1  0.60092573  0.27076967  0.51708629  1  0  -0.040684  -0.064003  0  3.844299  0
C  C47  1  0.39907471  0.72922879  0.01708671  1  0  -0.040685  -0.063995  0  3.844304  0
C  C48  1  0.14212504  0.32883131  0.08110037  1  0  0.208994  0.544844  0  4.274337  0
C  C49  1  0.85787406  0.67116944  0.58110079  1  0  0.208975  0.544857  0  4.274264  0
C  C50  1  0.67116750  0.85787248  0.41889853  1  0  0.209088  0.544879  0  4.274276  0
C  C51  1  0.32883230  0.14212604  0.91889949  1  0  0.209011  0.54487  0  4.274407  0
C  C52  1  0.85787387  0.67116833  0.91889884  1  0  0.20903  0.544887  0  4.274298  0
C  C53  1  0.14212668  0.32883247  0.41889842  1  0  0.209087  0.544898  0  4.2743  0
C  C54  1  0.32883174  0.14212487  0.58109993  1  0  0.209016  0.544877  0  4.274318  0
C  C55  1  0.67116877  0.85787359  0.08110123  1  0  0.208991  0.544869  0  4.274292  0
N  N56  1  0.57434852  0.30200622  0.24999988  1  0  -0.182441  -0.128106  0  3.489085  0
N  N57  1  0.42565147  0.69799341  0.75000008  1  0  -0.182422  -0.128021  0  3.489082  0
N  N58  1  0.69799432  0.42565172  0.24999991  1  0  -0.182396  -0.12802  0  3.489029  0
N  N59  1  0.30200712  0.57434906  0.75000006  1  0  -0.182411  -0.128012  0  3.489031  0
N  N60  1  0.39042583  0.48629289  0.13874554  1  0  -0.178845  -0.117032  0  3.466996  0
N  N61  1  0.60957549  0.51370786  0.63874510  1  0  -0.178863  -0.117016  0  3.467014  0
N  N62  1  0.51370696  0.60957505  0.36125564  1  0  -0.178866  -0.117003  0  3.467038  0
N  N63  1  0.48629207  0.39042460  0.86125515  1  0  -0.178879  -0.117063  0  3.466967  0
N  N64  1  0.60957561  0.51370788  0.86125518  1  0  -0.178829  -0.116959  0  3.466963  0
N  N65  1  0.39042450  0.48629177  0.36125486  1  0  -0.178822  -0.116976  0  3.466956  0
N  N66  1  0.48629232  0.39042572  0.63874508  1  0  -0.178838  -0.116981  0  3.466992  0
N  N67  1  0.51370684  0.60957504  0.13874557  1  0  -0.178836  -0.116982  0  3.467007  0
O  O68  1  0.31769756  0.06429373  0.25000058  1  0  -0.422094  -0.611194  0  2.395573  0
O  O69  1  0.68230430  0.93571161  0.75000014  1  0  -0.422215  -0.611339  0  2.395565  0
O  O70  1  0.93570978  0.68230363  0.24999996  1  0  -0.422061  -0.611154  0  2.395589  0
O  O71  1  0.06429527  0.31769828  0.75000001  1  0  -0.422112  -0.611207  0  2.395594  0
O  O72  1  0.44987028  0.89770577  0.24999982  1  0  -0.298577  -0.515061  0  2.14429  0
O  O73  1  0.55012793  0.10229501  0.75000014  1  0  -0.298616  -0.515148  0  2.144258  0
O  O74  1  0.10229557  0.55012859  0.24999975  1  0  -0.298633  -0.51509  0  2.144196  0
O  O75  1  0.89770550  0.44987105  0.75000022  1  0  -0.298618  -0.515077  0  2.144215  0
O  O76  1  0.15904816  0.22765327  0.14162907  1  0  -0.357315  -0.566652  0  2.347463  0
O  O77  1  0.84095101  0.77234749  0.64162948  1  0  -0.357355  -0.566695  0  2.347483  0
O  O78  1  0.77234672  0.84095101  0.35837062  1  0  -0.357369  -0.566668  0  2.347495  0
O  O79  1  0.22765339  0.15904864  0.85837077  1  0  -0.357347  -0.566673  0  2.347483  0
O  O80  1  0.84095113  0.77234751  0.85837089  1  0  -0.357367  -0.566719  0  2.347492  0
O  O81  1  0.15904720  0.22765329  0.35837124  1  0  -0.357336  -0.566646  0  2.347485  0
O  O82  1  0.22765219  0.15904863  0.64162935  1  0  -0.357358  -0.566704  0  2.34747  0
O  O83  1  0.77234698  0.84095213  0.14162920  1  0  -0.357327  -0.566673  0  2.347479  0
O  O84  1  0.03195754  0.31444937  0.02327585  1  0  -0.379221  -0.572616  0  2.176422  0
O  O85  1  0.96804365  0.68555137  0.52327708  1  0  -0.379203  -0.572613  0  2.176351  0
O  O86  1  0.68555120  0.96804385  0.47672377  1  0  -0.379278  -0.572644  0  2.176351  0
O  O87  1  0.31444834  0.03195696  0.97672398  1  0  -0.379234  -0.572635  0  2.17638  0
O  O88  1  0.96804390  0.68555141  0.97672411  1  0  -0.379253  -0.572633  0  2.176365  0
O  O89  1  0.03195526  0.31444826  0.47672439  1  0  -0.379291  -0.572674  0  2.176319  0
O  O90  1  0.31444917  0.03195693  0.52327620  1  0  -0.379235  -0.572626  0  2.176405  0
O  O91  1  0.68555095  0.96804381  0.02327599  1  0  -0.379225  -0.572618  0  2.176355  0
