# generated using pymatgen
data_Cu3H12(C3N2)4
_symmetry_space_group_name_H-M   'P 1'
_cell_length_a   5.39239497
_cell_length_b   6.65308238
_cell_length_c   10.20157063
_cell_angle_alpha   106.95758392
_cell_angle_beta   89.01852097
_cell_angle_gamma   90.26704509
_symmetry_Int_Tables_number   1
_chemical_formula_structural   Cu3H12(C3N2)4
_chemical_formula_sum   'Cu3 H12 C12 N8'
_cell_volume   350.02766275
_cell_formula_units_Z   1
loop_
 _symmetry_equiv_pos_site_id
 _symmetry_equiv_pos_as_xyz
  1  'x, y, z'
loop_
 _atom_site_type_symbol
 _atom_site_label
 _atom_site_symmetry_multiplicity
 _atom_site_fract_x
 _atom_site_fract_y
 _atom_site_fract_z
 _atom_site_occupancy
 _atom_site_hle17_ddec_charge
 _atom_site_hle17_ddec_spin_density
 _atom_site_hle17_ddec_sum_bond_order
 _atom_site_hle17_magmom
 _atom_site_hse06_10hf_ddec_charge
 _atom_site_hse06_10hf_ddec_spin_density
 _atom_site_hse06_10hf_ddec_sum_bond_order
 _atom_site_hse06_10hf_magmom
 _atom_site_hse06_ddec_charge
 _atom_site_hse06_ddec_spin_density
 _atom_site_hse06_ddec_sum_bond_order
 _atom_site_hse06_magmom
 _atom_site_pbe_cm5_charge
 _atom_site_pbe_ddec_charge
 _atom_site_pbe_ddec_spin_density
 _atom_site_pbe_ddec_sum_bond_order
 _atom_site_pbe_magmom
Cu  Cu0  1  0.00000083  0.99999518  0.99999956  1  0.725853  0.644362  1.877792  0.483  0.688214  0.744618  2.2536  0.593  0.765899  0.804554  2.202419  0.666  0.763461  0.640626  0.703444  2.288821  0.546
Cu  Cu1  1  0.50000847  0.00000860  0.50000547  1  0.413284  0.02559  1.707474  0.022  0.263847  0.00348  2.155712  0.004  0.281528  0.001264  2.111107  0.002  0.477182  0.253655  0.006592  2.186419  0.006
Cu  Cu2  1  0.49999218  0.49999681  0.49999523  1  0.421787  0.018776  1.63745  0.017  0.279987  0.002275  2.065209  0.003  0.302281  9.7e-05  2.016466  0.001  0.475971  0.264321  0.004255  2.100474  0.005
H  H3  1  0.28502861  0.48814458  0.78401868  1  0.098854  0.000294  1.000182  0.001  0.108683  0.000319  1.060767  0.0  0.109849  0.00023  1.062788  0.0  0.106124  0.107707  0.000422  1.05963  0.001
H  H4  1  0.71494460  0.51186644  0.21598094  1  0.0989  0.000297  1.00011  0.001  0.108777  0.000319  1.060614  0.0  0.109905  0.000229  1.062678  0.0  0.106145  0.107802  0.000421  1.059478  0.001
H  H5  1  0.52585290  0.71534060  0.01821316  1  0.092446  -0.00039  0.99514  0.0  0.102056  -6.6e-05  1.060355  0.0  0.103625  -0.000113  1.060476  0.0  0.108812  0.100671  2.4e-05  1.06082  0.0
H  H6  1  0.47412424  0.28467191  0.98177888  1  0.092471  -0.000398  0.995143  0.0  0.1022  -6.6e-05  1.060208  0.0  0.103668  -0.000112  1.06045  0.0  0.108824  0.100813  2.4e-05  1.060675  0.0
H  H7  1  0.93014908  0.76587986  0.67260065  1  0.074671  -0.000294  0.972076  0.0  0.087019  -0.000104  1.03366  0.0  0.088247  -0.000113  1.032061  0.0  0.121163  0.08573  -3.8e-05  1.035423  0.0
H  H8  1  0.06982736  0.23409823  0.32740163  1  0.074567  -0.00029  0.972  0.0  0.086879  -0.000105  1.033691  0.0  0.088109  -0.000113  1.032093  0.0  0.121042  0.085581  -3.9e-05  1.035463  0.0
H  H9  1  0.23813455  0.71410151  0.18254650  1  0.095878  -0.000244  0.985479  0.0  0.105692  0.000125  1.047776  0.0  0.106941  6.1e-05  1.048452  0.0  0.106981  0.104803  0.000208  1.047294  0.001
H  H10  1  0.76186986  0.28589369  0.81745796  1  0.095874  -0.000243  0.985553  0.0  0.105707  0.000125  1.047817  0.0  0.106969  6.1e-05  1.04847  0.0  0.106998  0.1048  0.000208  1.047354  0.001
H  H11  1  0.01794507  0.75016543  0.43441360  1  0.084411  0.000401  0.98514  0.0  0.09344  0.000418  1.053157  0.0  0.096361  0.000327  1.050307  0.0  0.102216  0.091049  0.000584  1.055943  0.001
H  H12  1  0.98208177  0.24983904  0.56558863  1  0.084379  0.000399  0.985287  0.0  0.093424  0.000419  1.053287  0.0  0.096344  0.000328  1.050438  0.0  0.102196  0.091033  0.000585  1.056071  0.001
H  H13  1  0.56339707  0.04304681  0.21176348  1  0.070484  -0.000395  1.028011  0.0  0.077163  -0.000159  1.097848  0.0  0.077439  -0.000187  1.098833  0.0  0.11804  0.076828  -0.000127  1.097375  0.0
H  H14  1  0.43662435  0.95696237  0.78823572  1  0.070558  -0.000397  1.027966  0.0  0.077222  -0.000158  1.097796  0.0  0.077499  -0.000187  1.098774  0.0  0.118051  0.076888  -0.000127  1.097325  0.0
C  C15  1  0.45584582  0.57769662  0.79514006  1  -0.034892  0.003085  3.757009  0.004  -0.060999  0.001737  4.002791  0.002  -0.060476  0.001326  4.025166  0.002  -0.02433  -0.061315  0.002173  3.98786  0.003
C  C16  1  0.54416164  0.42229091  0.20488551  1  -0.03473  0.003023  3.7572  0.003  -0.06086  0.001743  4.003007  0.002  -0.060303  0.001324  4.025384  0.002  -0.024191  -0.061183  0.002176  3.988077  0.003
C  C17  1  0.57338010  0.69366936  0.91164503  1  -0.031377  -0.001668  3.768104  0.0  -0.061577  -0.000148  4.036706  0.001  -0.059597  -0.001172  4.059106  0.0  -0.022966  -0.062989  0.000459  4.022431  0.002
C  C18  1  0.42660572  0.30631336  0.08835516  1  -0.031667  -0.001578  3.767726  0.0  -0.061904  -0.000152  4.036264  0.001  -0.059848  -0.00117  4.058716  0.0  -0.02305  -0.063317  0.000459  4.021997  0.002
C  C19  1  0.78715282  0.72151846  0.73472179  1  0.171489  -0.006748  3.751241  -0.003  0.134442  -0.001585  3.99925  0.0  0.148845  -0.002984  4.016742  -0.001  0.109523  0.124949  -0.000377  3.987933  0.001
C  C20  1  0.21282832  0.27850180  0.26526287  1  0.171478  -0.006797  3.750444  -0.003  0.134507  -0.001583  3.998442  0.0  0.148901  -0.002988  4.015944  -0.001  0.109586  0.125017  -0.000374  3.987119  0.001
C  C21  1  0.06529364  0.78957861  0.22548895  1  -0.018259  0.001306  3.739477  0.002  -0.046161  0.001604  3.998154  0.002  -0.042737  0.000377  4.019623  0.001  -0.018576  -0.048052  0.001689  3.98308  0.002
C  C22  1  0.93470711  0.21041344  0.77451198  1  -0.018196  0.001272  3.739638  0.002  -0.046117  0.001602  3.998289  0.002  -0.042698  0.000373  4.019757  0.001  -0.018558  -0.047994  0.001688  3.983224  0.002
C  C23  1  0.95527519  0.80763081  0.35164529  1  -0.045884  0.003425  3.792169  0.004  -0.066195  0.00252  4.033967  0.003  -0.065374  0.001912  4.053826  0.002  -0.026091  -0.066078  0.003828  4.020405  0.004
C  C24  1  0.04473298  0.19236750  0.64835876  1  -0.045961  0.003457  3.792227  0.004  -0.066304  0.002518  4.034001  0.003  -0.065486  0.001917  4.053873  0.002  -0.026142  -0.066182  0.003828  4.020434  0.004
C  C25  1  0.71705593  0.95961940  0.23837281  1  0.160835  -0.007823  3.750057  -0.004  0.117094  -0.001801  4.009812  0.0  0.130653  -0.003059  4.027579  -0.001  0.103198  0.108721  2.8e-05  3.99751  0.001
C  C26  1  0.28296162  0.04039300  0.76163385  1  0.16073  -0.007808  3.750228  -0.004  0.116979  -0.001802  4.009976  0.0  0.130547  -0.003061  4.027725  -0.001  0.103189  0.108601  2.9e-05  3.997682  0.001
N  N27  1  0.78185343  0.78528205  0.87296576  1  -0.369043  0.078277  3.328149  0.103  -0.323282  0.059423  3.634925  0.082  -0.355502  0.049466  3.658529  0.073  -0.386854  -0.303294  0.064844  3.620356  0.085
N  N28  1  0.21809054  0.21468961  0.12699910  1  -0.368987  0.078217  3.328092  0.103  -0.323285  0.059399  3.634925  0.082  -0.355477  0.049453  3.658473  0.073  -0.38695  -0.303305  0.064814  3.62035  0.085
N  N29  1  0.59285545  0.59529858  0.68265418  1  -0.387276  0.004313  3.506639  0.006  -0.287246  0.002146  3.795567  0.003  -0.30674  0.001337  3.804821  0.002  -0.428591  -0.27406  0.002593  3.789061  0.004
N  N30  1  0.40718994  0.40471997  0.31735457  1  -0.387251  0.00433  3.507191  0.006  -0.287287  0.002142  3.796194  0.003  -0.306763  0.001337  3.805433  0.002  -0.428736  -0.274107  0.002589  3.789684  0.004
N  N31  1  0.73451279  0.91651003  0.35938202  1  -0.384165  0.005393  3.524818  0.007  -0.286491  0.002576  3.817317  0.004  -0.305193  0.001672  3.827358  0.003  -0.432636  -0.274258  0.003699  3.810076  0.005
N  N32  1  0.26550643  0.08349612  0.64062838  1  -0.384123  0.005384  3.524711  0.007  -0.2864  0.002578  3.817188  0.004  -0.305103  0.001671  3.827226  0.003  -0.432592  -0.274168  0.0037  3.809952  0.005
N  N33  1  0.91326561  0.88668746  0.15504005  1  -0.358595  0.076727  3.339825  0.101  -0.309634  0.057817  3.644542  0.079  -0.34118  0.047967  3.666387  0.07  -0.394219  -0.289668  0.062853  3.630259  0.082
N  N34  1  0.08674822  0.11331079  0.84496006  1  -0.35854  0.076742  3.340025  0.101  -0.30959  0.057828  3.644768  0.079  -0.341137  0.047976  3.666609  0.07  -0.394218  -0.289622  0.062866  3.630478  0.082
