# generated using pymatgen
data_Cd3H14(C3O4)4
_symmetry_space_group_name_H-M   'P 1'
_cell_length_a   6.13195856
_cell_length_b   9.81214768
_cell_length_c   15.23237251
_cell_angle_alpha   90.00011105
_cell_angle_beta   90.00001412
_cell_angle_gamma   102.23414624
_symmetry_Int_Tables_number   1
_chemical_formula_structural   Cd3H14(C3O4)4
_chemical_formula_sum   'Cd6 H28 C24 O32'
_cell_volume   895.68272008
_cell_formula_units_Z   2
loop_
 _symmetry_equiv_pos_site_id
 _symmetry_equiv_pos_as_xyz
  1  'x, y, z'
loop_
 _atom_site_type_symbol
 _atom_site_label
 _atom_site_symmetry_multiplicity
 _atom_site_fract_x
 _atom_site_fract_y
 _atom_site_fract_z
 _atom_site_occupancy
 _atom_site_hle17_bader_spin_density
 _atom_site_hle17_ddec_charge
 _atom_site_hle17_ddec_spin_density
 _atom_site_hle17_ddec_sum_bond_order
 _atom_site_hle17_magmom
 _atom_site_hse06_10hf_bader_spin_density
 _atom_site_hse06_10hf_ddec_charge
 _atom_site_hse06_10hf_ddec_spin_density
 _atom_site_hse06_10hf_ddec_sum_bond_order
 _atom_site_hse06_10hf_magmom
 _atom_site_hse06_bader_spin_density
 _atom_site_hse06_ddec_charge
 _atom_site_hse06_ddec_spin_density
 _atom_site_hse06_ddec_sum_bond_order
 _atom_site_hse06_magmom
 _atom_site_pbe_bader_spin_density
 _atom_site_pbe_cm5_charge
 _atom_site_pbe_ddec_charge
 _atom_site_pbe_ddec_spin_density
 _atom_site_pbe_ddec_sum_bond_order
 _atom_site_pbe_magmom
Cd  Cd0  1  0.60552859  0.32084637  0.40264926  1  0  1.216733  0  1.525764  0  0  1.035624  0  1.957874  0  0  1.097961  0  1.898801  0  0  0.769862  0.990669  0  1.998889  0
Cd  Cd1  1  0.39446926  0.17915120  0.90264809  1  0  1.21673  0  1.525773  0  0  1.035618  0  1.957877  0  0  1.097957  0  1.898805  0  0  0.769854  0.990664  0  1.998892  0
Cd  Cd2  1  0.39447400  0.67915500  0.59735125  1  0  1.216729  0  1.525754  0  0  1.035618  0  1.957864  0  0  1.097955  0  1.898792  0  0  0.769865  0.990666  0  1.998879  0
Cd  Cd3  1  0.60553098  0.82084809  0.09735110  1  0  1.216745  0  1.525704  0  0  1.035661  0  1.957794  0  0  1.097998  0  1.898724  0  0  0.769873  0.990708  0  1.998809  0
Cd  Cd4  1  0.99999819  0.99999848  0.50000092  1  0  1.29029  0  1.584382  0  0  1.123172  0  2.018235  0  0  1.179519  0  1.958196  0  0  0.807055  1.081925  0  2.060326  0
Cd  Cd5  1  0.00000041  0.49999968  0.99999949  1  0  1.290312  0  1.584365  0  0  1.123179  0  2.018206  0  0  1.179527  0  1.958167  0  0  0.807074  1.081937  0  2.060298  0
H  H6  1  0.31354191  0.50873006  0.41750457  1  0  0.436444  0  0.861654  0  0  0.404583  0  0.926471  0  0  0.415217  0  0.911234  0  0  0.297948  0.396896  0  0.937485  0
H  H7  1  0.68645926  0.99127096  0.91750382  1  0  0.436474  0  0.861609  0  0  0.404602  0  0.92645  0  0  0.415239  0  0.911208  0  0  0.29796  0.396917  0  0.937461  0
H  H8  1  0.68645833  0.49126923  0.58249529  1  0  0.436465  0  0.861626  0  0  0.404615  0  0.926422  0  0  0.415249  0  0.911188  0  0  0.297959  0.396931  0  0.937436  0
H  H9  1  0.31354206  0.00873146  0.08249538  1  0  0.436455  0  0.861641  0  0  0.404606  0  0.926438  0  0  0.41524  0  0.911202  0  0  0.297952  0.39692  0  0.937452  0
H  H10  1  0.19668690  0.36885287  0.46154029  1  0  0.44699  0  0.823811  0  0  0.415181  0  0.898353  0  0  0.425266  0  0.883711  0  0  0.306389  0.407925  0  0.908938  0
H  H11  1  0.80331178  0.13114697  0.96154173  1  0  0.446984  0  0.823789  0  0  0.41517  0  0.898364  0  0  0.425255  0  0.883723  0  0  0.306381  0.407915  0  0.908949  0
H  H12  1  0.80331298  0.63114538  0.53845825  1  0  0.446971  0  0.823824  0  0  0.415157  0  0.898385  0  0  0.425244  0  0.883743  0  0  0.306379  0.407902  0  0.90897  0
H  H13  1  0.19668756  0.86885441  0.03845812  1  0  0.447047  0  0.823765  0  0  0.415243  0  0.898292  0  0  0.425332  0  0.883644  0  0  0.306412  0.407988  0  0.908879  0
H  H14  1  0.73048767  0.07732496  0.75624997  1  0  0.136171  0  0.94443  0  0  0.148828  0  1.007221  0  0  0.15161  0  1.006276  0  0  0.108353  0.146716  0  1.008123  0
H  H15  1  0.26951735  0.42267942  0.25624926  1  0  0.136188  0  0.944404  0  0  0.148844  0  1.007171  0  0  0.151627  0  1.006226  0  0  0.108359  0.14673  0  1.008071  0
H  H16  1  0.26951329  0.92267642  0.24375119  1  0  0.136209  0  0.94439  0  0  0.148858  0  1.007176  0  0  0.151642  0  1.006229  0  0  0.108358  0.146745  0  1.008077  0
H  H17  1  0.73048325  0.57732091  0.74375059  1  0  0.136156  0  0.94443  0  0  0.148827  0  1.00719  0  0  0.151611  0  1.006245  0  0  0.108356  0.146709  0  1.008089  0
H  H18  1  0.54217703  0.14429207  0.69122862  1  0  0.153619  0  0.910915  0  0  0.165822  0  0.969513  0  0  0.169332  0  0.967778  0  0  0.116938  0.163265  0  0.970993  0
H  H19  1  0.45782426  0.35571106  0.19122719  1  0  0.1536  0  0.910948  0  0  0.165826  0  0.969514  0  0  0.169337  0  0.967777  0  0  0.11693  0.163266  0  0.970992  0
H  H20  1  0.45782230  0.85570931  0.30877320  1  0  0.153593  0  0.910922  0  0  0.165825  0  0.969487  0  0  0.169338  0  0.96775  0  0  0.116923  0.163267  0  0.970967  0
H  H21  1  0.54217598  0.64428823  0.80877267  1  0  0.153608  0  0.910938  0  0  0.165832  0  0.969513  0  0  0.169344  0  0.967777  0  0  0.116939  0.163268  0  0.970989  0
H  H22  1  0.10931917  0.09024486  0.68758698  1  0  0.402607  0  0.889442  0  0  0.374837  0  0.960484  0  0  0.386636  0  0.947897  0  0  0.297971  0.366452  0  0.969379  0
H  H23  1  0.89067977  0.40975618  0.18758697  1  0  0.402592  0  0.88946  0  0  0.374816  0  0.9605  0  0  0.386616  0  0.947914  0  0  0.297965  0.366434  0  0.96939  0
H  H24  1  0.89067980  0.90975548  0.31241353  1  0  0.402602  0  0.889457  0  0  0.374831  0  0.960511  0  0  0.386632  0  0.947922  0  0  0.297953  0.366444  0  0.96941  0
H  H25  1  0.10932047  0.59024311  0.81241288  1  0  0.402592  0  0.889458  0  0  0.374817  0  0.960501  0  0  0.386617  0  0.947914  0  0  0.297963  0.366434  0  0.969393  0
H  H26  1  0.80337010  0.35497132  0.72767482  1  0  0.129252  0  0.952447  0  0  0.141729  0  1.015167  0  0  0.143825  0  1.015149  0  0  0.109319  0.1402  0  1.015283  0
H  H27  1  0.19663360  0.14503401  0.22767573  1  0  0.129282  0  0.952408  0  0  0.141772  0  1.015117  0  0  0.143872  0  1.015094  0  0  0.109328  0.140221  0  1.015257  0
H  H28  1  0.19662923  0.64503006  0.27232437  1  0  0.129268  0  0.952431  0  0  0.141741  0  1.015136  0  0  0.143838  0  1.015117  0  0  0.109325  0.140201  0  1.015264  0
H  H29  1  0.80336863  0.85496631  0.77232412  1  0  0.129285  0  0.95242  0  0  0.141776  0  1.015123  0  0  0.143873  0  1.015103  0  0  0.109338  0.140236  0  1.015252  0
H  H30  1  0.03125672  0.28770475  0.76522897  1  0  0.145596  0  0.911765  0  0  0.1593  0  0.969363  0  0  0.16247  0  0.967692  0  0  0.114939  0.157068  0  0.970639  0
H  H31  1  0.96874343  0.21229967  0.26522807  1  0  0.145638  0  0.911737  0  0  0.159349  0  0.969331  0  0  0.16252  0  0.967661  0  0  0.114944  0.157115  0  0.970603  0
H  H32  1  0.96874225  0.71229559  0.23477088  1  0  0.145623  0  0.911748  0  0  0.159311  0  0.969344  0  0  0.162481  0  0.967674  0  0  0.114949  0.157079  0  0.970621  0
H  H33  1  0.03125753  0.78770171  0.73477178  1  0  0.145628  0  0.911745  0  0  0.159339  0  0.969338  0  0  0.16251  0  0.967668  0  0  0.114945  0.157107  0  0.970613  0
C  C34  1  0.80523861  0.24367673  0.55623331  1  0  0.620285  0  3.825438  0  0  0.563223  0  4.122816  0  0  0.596897  0  4.117889  0  0  0.209182  0.539975  0  4.125802  0
C  C35  1  0.19476210  0.25632492  0.05623304  1  0  0.620264  0  3.825422  0  0  0.563234  0  4.122803  0  0  0.596907  0  4.117877  0  0  0.209191  0.539987  0  4.12579  0
C  C36  1  0.19476001  0.75632256  0.44376654  1  0  0.620239  0  3.825429  0  0  0.563134  0  4.122817  0  0  0.596805  0  4.117894  0  0  0.209176  0.539888  0  4.125801  0
C  C37  1  0.80523687  0.74367542  0.94376616  1  0  0.620271  0  3.825394  0  0  0.563214  0  4.122778  0  0  0.596886  0  4.117853  0  0  0.209155  0.539965  0  4.125768  0
C  C38  1  0.88382092  0.19505113  0.64446511  1  0  0.270864  0  3.581121  0  0  0.267711  0  3.827416  0  0  0.271948  0  3.838697  0  0  0.069926  0.264719  0  3.819703  0
C  C39  1  0.11618029  0.30495185  0.14446423  1  0  0.270874  0  3.581168  0  0  0.267561  0  3.827709  0  0  0.2718  0  3.838992  0  0  0.069936  0.264569  0  3.819988  0
C  C40  1  0.11617606  0.80494817  0.35553540  1  0  0.270825  0  3.581244  0  0  0.267744  0  3.827384  0  0  0.271984  0  3.838662  0  0  0.069951  0.264752  0  3.819668  0
C  C41  1  0.88382031  0.69504848  0.85553562  1  0  0.270831  0  3.581165  0  0  0.267587  0  3.827595  0  0  0.271826  0  3.838878  0  0  0.06993  0.264587  0  3.819877  0
C  C42  1  0.68595806  0.09376987  0.68771109  1  0  -0.370445  0  3.611525  0  0  -0.411906  0  3.851261  0  0  -0.420149  0  3.857818  0  0  -0.167189  -0.406193  0  3.847034  0
C  C43  1  0.31404323  0.40623324  0.18770970  1  0  -0.370508  0  3.61158  0  0  -0.411898  0  3.85127  0  0  -0.420145  0  3.857836  0  0  -0.1672  -0.406172  0  3.847024  0
C  C44  1  0.31403964  0.90623151  0.31229008  1  0  -0.370515  0  3.611559  0  0  -0.411965  0  3.851209  0  0  -0.420215  0  3.857776  0  0  -0.167185  -0.406248  0  3.846978  0
C  C45  1  0.68595936  0.59376812  0.81229081  1  0  -0.370419  0  3.61157  0  0  -0.411857  0  3.851276  0  0  -0.420109  0  3.857851  0  0  -0.167176  -0.406102  0  3.846998  0
C  C46  1  0.60399768  0.95152326  0.64634183  1  0  0.718837  0  3.826189  0  0  0.670002  0  4.122007  0  0  0.705213  0  4.115815  0  0  0.203803  0.645907  0  4.125441  0
C  C47  1  0.39600177  0.54847792  0.14633935  1  0  0.71902  0  3.826059  0  0  0.670156  0  4.121912  0  0  0.705366  0  4.115716  0  0  0.203815  0.646059  0  4.125347  0
C  C48  1  0.39599803  0.04847708  0.35366065  1  0  0.718994  0  3.82603  0  0  0.670111  0  4.121913  0  0  0.705323  0  4.115719  0  0  0.203855  0.646017  0  4.125347  0
C  C49  1  0.60399847  0.45152137  0.85365919  1  0  0.718907  0  3.82613  0  0  0.670034  0  4.121999  0  0  0.705245  0  4.115808  0  0  0.203818  0.645929  0  4.125434  0
C  C50  1  0.95406491  0.32086352  0.70601239  1  0  -0.350059  0  3.611656  0  0  -0.391754  0  3.850213  0  0  -0.399055  0  3.856481  0  0  -0.163195  -0.386574  0  3.845921  0
C  C51  1  0.04593641  0.17913965  0.20601267  1  0  -0.35011  0  3.611598  0  0  -0.391822  0  3.850185  0  0  -0.399128  0  3.856453  0  0  -0.163203  -0.386629  0  3.8459  0
C  C52  1  0.04593243  0.67913682  0.29398746  1  0  -0.350069  0  3.611644  0  0  -0.391742  0  3.85012  0  0  -0.399046  0  3.85639  0  0  -0.163196  -0.386562  0  3.845844  0
C  C53  1  0.95406383  0.82085964  0.79398718  1  0  -0.350108  0  3.611588  0  0  -0.391839  0  3.850178  0  0  -0.399144  0  3.856449  0  0  -0.163209  -0.386654  0  3.845894  0
C  C54  1  0.11219403  0.44547094  0.66719050  1  0  0.730988  0  3.813082  0  0  0.676367  0  4.11582  0  0  0.711483  0  4.108319  0  0  0.208028  0.652398  0  4.12024  0
C  C55  1  0.88780885  0.05453210  0.16719137  1  0  0.73088  0  3.813221  0  0  0.676316  0  4.11589  0  0  0.71143  0  4.108389  0  0  0.207998  0.652343  0  4.120309  0
C  C56  1  0.88780494  0.55452939  0.33280803  1  0  0.730916  0  3.813148  0  0  0.676305  0  4.115833  0  0  0.71142  0  4.108334  0  0  0.20801  0.652336  0  4.120251  0
C  C57  1  0.11219139  0.94546719  0.83280914  1  0  0.730943  0  3.813061  0  0  0.676374  0  4.115738  0  0  0.711487  0  4.108237  0  0  0.208027  0.652399  0  4.120162  0
O  O58  1  0.87438986  0.20310662  0.48341469  1  0  -0.659766  0  2.060006  0  0  -0.585152  0  2.321265  0  0  -0.616548  0  2.307756  0  0  -0.319941  -0.563352  0  2.330317  0
O  O59  1  0.12561175  0.29689224  0.98341430  1  0  -0.659756  0  2.059995  0  0  -0.58515  0  2.321247  0  0  -0.616545  0  2.307738  0  0  -0.319956  -0.563353  0  2.330301  0
O  O60  1  0.12560965  0.79689058  0.51658582  1  0  -0.65973  0  2.060015  0  0  -0.585117  0  2.32129  0  0  -0.616516  0  2.307783  0  0  -0.319946  -0.563317  0  2.330332  0
O  O61  1  0.87438849  0.70310705  0.01658490  1  0  -0.659738  0  2.059948  0  0  -0.585139  0  2.321226  0  0  -0.616534  0  2.307716  0  0  -0.319935  -0.563338  0  2.330279  0
O  O62  1  0.66056551  0.31877491  0.55832888  1  0  -0.617676  0  2.027499  0  0  -0.549155  0  2.263205  0  0  -0.578268  0  2.253496  0  0  -0.306751  -0.528639  0  2.26954  0
O  O63  1  0.33943484  0.18122571  0.05832919  1  0  -0.617659  0  2.027498  0  0  -0.549138  0  2.26319  0  0  -0.578252  0  2.253484  0  0  -0.306754  -0.528621  0  2.269524  0
O  O64  1  0.33943473  0.68122438  0.44167031  1  0  -0.617663  0  2.027502  0  0  -0.549103  0  2.263195  0  0  -0.578208  0  2.253482  0  0  -0.306757  -0.528586  0  2.269527  0
O  O65  1  0.66056576  0.81877463  0.94167000  1  0  -0.617689  0  2.02747  0  0  -0.549126  0  2.263143  0  0  -0.578238  0  2.253435  0  0  -0.306743  -0.528607  0  2.269477  0
O  O66  1  0.66654405  0.91848581  0.57053747  1  0  -0.683789  0  2.010799  0  0  -0.610663  0  2.266607  0  0  -0.642599  0  2.25393  0  0  -0.33358  -0.587861  0  2.274674  0
O  O67  1  0.33346451  0.58150883  0.07053371  1  0  -0.683883  0  2.010768  0  0  -0.610737  0  2.266561  0  0  -0.642677  0  2.253899  0  0  -0.333598  -0.587946  0  2.274652  0
O  O68  1  0.33345293  0.08151349  0.42946501  1  0  -0.683868  0  2.010857  0  0  -0.610717  0  2.266655  0  0  -0.64266  0  2.253995  0  0  -0.333618  -0.587918  0  2.274726  0
O  O69  1  0.66654207  0.41848521  0.92946351  1  0  -0.683827  0  2.010741  0  0  -0.610681  0  2.266529  0  0  -0.642624  0  2.25387  0  0  -0.33362  -0.587879  0  2.274598  0
O  O70  1  0.46481125  0.86431789  0.69140697  1  0  -0.623419  0  1.944565  0  0  -0.557684  0  2.185122  0  0  -0.588484  0  2.175916  0  0  -0.321439  -0.535948  0  2.190789  0
O  O71  1  0.53518321  0.63568763  0.19140527  1  0  -0.623431  0  1.94441  0  0  -0.557738  0  2.185036  0  0  -0.588538  0  2.175826  0  0  -0.321418  -0.536  0  2.190703  0
O  O72  1  0.53518320  0.13568351  0.30859485  1  0  -0.623462  0  1.94441  0  0  -0.557713  0  2.184989  0  0  -0.588512  0  2.175782  0  0  -0.321451  -0.535976  0  2.190652  0
O  O73  1  0.46481287  0.36431376  0.80859392  1  0  -0.623466  0  1.944583  0  0  -0.557719  0  2.185158  0  0  -0.588518  0  2.175948  0  0  -0.321426  -0.535983  0  2.190832  0
O  O74  1  0.28388338  0.40576841  0.40940136  1  0  -0.8271  0  1.853186  0  0  -0.760244  0  2.05589  0  0  -0.783759  0  2.022464  0  0  -0.575117  -0.743459  0  2.079632  0
O  O75  1  0.71611720  0.09423230  0.90940144  1  0  -0.827118  0  1.85314  0  0  -0.760252  0  2.055862  0  0  -0.783768  0  2.022432  0  0  -0.575117  -0.743465  0  2.079606  0
O  O76  1  0.71611849  0.59423088  0.59059783  1  0  -0.827122  0  1.853211  0  0  -0.76026  0  2.055914  0  0  -0.783777  0  2.022485  0  0  -0.575129  -0.743477  0  2.07965  0
O  O77  1  0.28388249  0.90577012  0.09059841  1  0  -0.827193  0  1.853165  0  0  -0.76035  0  2.05577  0  0  -0.783867  0  2.022344  0  0  -0.575146  -0.743566  0  2.079508  0
O  O78  1  0.06801011  0.12874604  0.62933868  1  0  -0.609001  0  2.077219  0  0  -0.546285  0  2.310637  0  0  -0.566418  0  2.295515  0  0  -0.394261  -0.531723  0  2.320986  0
O  O79  1  0.93199108  0.37125689  0.12933863  1  0  -0.609029  0  2.077274  0  0  -0.54624  0  2.31071  0  0  -0.566373  0  2.295587  0  0  -0.394285  -0.53168  0  2.321058  0
O  O80  1  0.93198850  0.87125325  0.37066182  1  0  -0.608996  0  2.077256  0  0  -0.546321  0  2.310658  0  0  -0.566455  0  2.295533  0  0  -0.394274  -0.53176  0  2.321008  0
O  O81  1  0.06800952  0.62874344  0.87066122  1  0  -0.609013  0  2.077244  0  0  -0.54623  0  2.310652  0  0  -0.566362  0  2.295527  0  0  -0.394273  -0.531669  0  2.321002  0
O  O82  1  0.17700696  0.55362222  0.71572733  1  0  -0.669178  0  2.017867  0  0  -0.597857  0  2.259656  0  0  -0.62892  0  2.249698  0  0  -0.320512  -0.575865  0  2.265802  0
O  O83  1  0.82300147  0.94638125  0.21572737  1  0  -0.669122  0  2.017966  0  0  -0.597822  0  2.259706  0  0  -0.628895  0  2.249771  0  0  -0.320484  -0.575819  0  2.265843  0
O  O84  1  0.82299364  0.44637811  0.28427186  1  0  -0.669173  0  2.017923  0  0  -0.597825  0  2.259649  0  0  -0.628886  0  2.249689  0  0  -0.320519  -0.575833  0  2.26579  0
O  O85  1  0.17699623  0.05362013  0.78427380  1  0  -0.669146  0  2.017954  0  0  -0.597804  0  2.259635  0  0  -0.628876  0  2.249699  0  0  -0.320479  -0.575805  0  2.265783  0
O  O86  1  0.17535984  0.44513481  0.58802425  1  0  -0.643045  0  1.972016  0  0  -0.574088  0  2.208086  0  0  -0.603409  0  2.198114  0  0  -0.314181  -0.553535  0  2.214513  0
O  O87  1  0.82464092  0.05486694  0.08802510  1  0  -0.643032  0  1.972059  0  0  -0.574084  0  2.2081  0  0  -0.603398  0  2.198121  0  0  -0.3142  -0.553536  0  2.214533  0
O  O88  1  0.82464203  0.55486447  0.41197495  1  0  -0.643025  0  1.972077  0  0  -0.574084  0  2.208151  0  0  -0.603404  0  2.198177  0  0  -0.314175  -0.553535  0  2.214577  0
O  O89  1  0.17535769  0.94513235  0.91197540  1  0  -0.643068  0  1.972025  0  0  -0.574119  0  2.208086  0  0  -0.603433  0  2.198106  0  0  -0.314222  -0.553567  0  2.214519  0
