# generated using pymatgen
data_H16RhC17NO4
_symmetry_space_group_name_H-M   'P 1'
_cell_length_a   9.53805546
_cell_length_b   10.22281819
_cell_length_c   10.66458139
_cell_angle_alpha   72.25336243
_cell_angle_beta   64.75743106
_cell_angle_gamma   63.06127778
_symmetry_Int_Tables_number   1
_chemical_formula_structural   H16RhC17NO4
_chemical_formula_sum   'H32 Rh2 C34 N2 O8'
_cell_volume   830.43320187
_cell_formula_units_Z   2
loop_
 _symmetry_equiv_pos_site_id
 _symmetry_equiv_pos_as_xyz
  1  'x, y, z'
loop_
 _atom_site_type_symbol
 _atom_site_label
 _atom_site_symmetry_multiplicity
 _atom_site_fract_x
 _atom_site_fract_y
 _atom_site_fract_z
 _atom_site_occupancy
 _atom_site_pbe_bader_spin_density
 _atom_site_pbe_cm5_charge
 _atom_site_pbe_ddec_charge
 _atom_site_pbe_ddec_spin_density
 _atom_site_pbe_ddec_sum_bond_order
 _atom_site_pbe_magmom
H  H0  1  0.10810782  0.34399066  0.93106208  1  0  0.104596  0.108849  0  1.007386  0
H  H1  1  0.89189564  0.65600811  0.06893627  1  0  0.104628  0.108893  0  1.007374  0
H  H2  1  0.07383201  0.20804122  0.17287221  1  0  0.097733  0.094219  0  1.045297  0
H  H3  1  0.92616772  0.79196088  0.82712845  1  0  0.097737  0.094214  0  1.045338  0
H  H4  1  0.87699143  0.07477865  0.28191225  1  0  0.099757  0.097075  0  1.001582  0
H  H5  1  0.12300830  0.92522346  0.71808935  1  0  0.099761  0.097062  0  1.001598  0
H  H6  1  0.71484537  0.07904360  0.14788971  1  0  0.099213  0.09461  0  1.03849  0
H  H7  1  0.28515577  0.92095518  0.85211233  1  0  0.099217  0.094624  0  1.038451  0
H  H8  1  0.74668270  0.21850666  0.90842444  1  0  0.105343  0.105172  0  1.025527  0
H  H9  1  0.25332217  0.78148879  0.09157435  1  0  0.105315  0.105118  0  1.025552  0
H  H10  1  0.50622051  0.08616706  0.36738304  1  0  0.102659  0.103094  0  1.02514  0
H  H11  1  0.49378340  0.91383615  0.63261478  1  0  0.10264  0.103101  0  1.025099  0
H  H12  1  0.67842236  0.83480389  0.28893085  1  0  0.100648  0.105678  0  1.021764  0
H  H13  1  0.32157992  0.16520043  0.71106820  1  0  0.100629  0.105658  0  1.021763  0
H  H14  1  0.54218297  0.69895669  0.25451779  1  0  0.098202  0.088868  0  1.032979  0
H  H15  1  0.45782302  0.30104431  0.74548270  1  0  0.098161  0.088842  0  1.03298  0
H  H16  1  0.23364227  0.80226605  0.31105254  1  0  0.102195  0.108293  0  1.028731  0
H  H17  1  0.76636442  0.19773605  0.68894455  1  0  0.102181  0.108231  0  1.028786  0
H  H18  1  0.06404767  0.05235233  0.38893871  1  0  0.10142  0.098164  0  1.039917  0
H  H19  1  0.93595672  0.94764976  0.61105644  1  0  0.101405  0.098095  0  1.039909  0
H  H20  1  0.50532883  0.38067641  0.33149618  1  0  0.124777  0.104857  0  0.995372  0
H  H21  1  0.49466073  0.61932236  0.66850651  1  0  0.124818  0.104902  0  0.995403  0
H  H22  1  0.77231366  0.36572132  0.34210941  1  0  0.121288  0.099187  0  1.018872  0
H  H23  1  0.22767101  0.63428078  0.65789604  1  0  0.12124  0.099119  0  1.018896  0
H  H24  1  0.41705831  0.37361591  0.10481652  1  0  0.082955  0.162084  0  1.023922  0
H  H25  1  0.58294748  0.62638286  0.89518001  1  0  0.082935  0.162047  0  1.02398  0
H  H26  1  0.36192313  0.43346721  0.95056292  1  0  0.078685  0.149015  0  1.034135  0
H  H27  1  0.63808128  0.56652934  0.04943479  1  0  0.078697  0.14903  0  1.034085  0
H  H28  1  0.24103438  0.35128069  0.10671634  1  0  0.080706  0.154824  0  1.03355  0
H  H29  1  0.75896908  0.64871808  0.89328294  1  0  0.080687  0.154799  0  1.033571  0
H  H30  1  0.44773024  0.23916421  0.01037674  1  0  0.081169  0.154765  0  1.026758  0
H  H31  1  0.55227416  0.76083235  0.98962190  1  0  0.08119  0.154783  0  1.026734  0
Rh  Rh32  1  0.12493228  0.50712170  0.49628734  1  0  0.649206  0.540289  0  3.789191  0
Rh  Rh33  1  0.87505935  0.49288039  0.50371453  1  0  0.649148  0.540165  0  3.789269  0
C  C34  1  0.95084876  0.36978111  0.76051481  1  0  0.217887  0.537314  0  4.12993  0
C  C35  1  0.04915054  0.63021655  0.23948544  1  0  0.21795  0.537458  0  4.129992  0
C  C36  1  0.92948342  0.28930781  0.90509291  1  0  -0.018847  -0.039983  0  3.994951  0
C  C37  1  0.07051519  0.71068875  0.09490699  1  0  -0.018831  -0.039956  0  3.994949  0
C  C38  1  0.02201044  0.28592102  0.97976740  1  0  -0.079541  -0.090636  0  3.958074  0
C  C39  1  0.97798839  0.71407776  0.02023365  1  0  -0.079559  -0.090669  0  3.958048  0
C  C40  1  0.00217392  0.20991328  0.11511555  1  0  -0.09503  -0.097267  0  4.015009  0
C  C41  1  0.99782560  0.79008660  0.88488397  1  0  -0.095032  -0.097268  0  4.015043  0
C  C42  1  0.89158014  0.13533341  0.17621893  1  0  -0.08442  -0.072061  0  3.991236  0
C  C43  1  0.10841658  0.86466758  0.82378414  1  0  -0.084444  -0.072051  0  3.991358  0
C  C44  1  0.79987959  0.13805766  0.10176981  1  0  -0.091888  -0.086342  0  4.010468  0
C  C45  1  0.20011971  0.86194000  0.89822857  1  0  -0.091895  -0.086399  0  4.010446  0
C  C46  1  0.81789802  0.21543643  0.96702604  1  0  -0.079337  -0.087892  0  3.956025  0
C  C47  1  0.18210196  0.78456234  0.03297550  1  0  -0.079303  -0.087808  0  3.955928  0
C  C48  1  0.17573573  0.23564811  0.42108463  1  0  0.212375  0.53075  0  4.13393  0
C  C49  1  0.82426727  0.76435177  0.57891450  1  0  0.212382  0.530804  0  4.133864  0
C  C50  1  0.27607203  0.08505518  0.37928792  1  0  -0.02376  -0.044089  0  4.006882  0
C  C51  1  0.72393097  0.91494470  0.62070841  1  0  -0.023766  -0.044187  0  4.006931  0
C  C52  1  0.44910300  0.02345690  0.35251663  1  0  -0.083728  -0.096602  0  3.973519  0
C  C53  1  0.55090253  0.97654521  0.64748184  1  0  -0.083692  -0.096589  0  3.973667  0
C  C54  1  0.54431806  0.88452624  0.30825129  1  0  -0.090497  -0.083141  0  3.992843  0
C  C55  1  0.45568331  0.11547475  0.69174814  1  0  -0.090426  -0.083059  0  3.992776  0
C  C56  1  0.46703942  0.80687927  0.29039814  1  0  -0.087801  -0.068354  0  3.99522  0
C  C57  1  0.53296610  0.19312284  0.70960126  1  0  -0.0878  -0.068355  0  3.995074  0
C  C58  1  0.29413189  0.86559057  0.32038944  1  0  -0.093144  -0.090016  0  3.993897  0
C  C59  1  0.70587180  0.13441043  0.67960911  1  0  -0.093171  -0.090017  0  3.99394  0
C  C60  1  0.19888102  0.00447619  0.36484380  1  0  -0.085647  -0.099597  0  3.98312  0
C  C61  1  0.80112404  0.99552702  0.63515358  1  0  -0.085611  -0.099447  0  3.982906  0
C  C62  1  0.50365837  0.43455769  0.40625213  1  0  0.052596  0.0314  0  3.921491  0
C  C63  1  0.49633398  0.56543997  0.59374983  1  0  0.052572  0.031241  0  3.921474  0
C  C64  1  0.65001183  0.42582168  0.41251847  1  0  0.047486  0.024587  0  3.932181  0
C  C65  1  0.34997584  0.57418154  0.58748833  1  0  0.047541  0.024795  0  3.931918  0
C  C66  1  0.36737380  0.34906164  0.04290082  1  0  -0.338273  -0.60768  0  3.853165  0
C  C67  1  0.63263014  0.65093602  0.95709673  1  0  -0.338274  -0.607661  0  3.853158  0
N  N68  1  0.35254968  0.50891369  0.49370161  1  0  -0.323213  -0.142788  0  3.564775  0
N  N69  1  0.64744057  0.49108619  0.50630143  1  0  -0.323238  -0.142683  0  3.564653  0
O  O70  1  0.07707552  0.40934978  0.69985484  1  0  -0.297958  -0.44854  0  2.449129  0
O  O71  1  0.92292030  0.59064788  0.30014674  1  0  -0.297974  -0.448585  0  2.449125  0
O  O72  1  0.84320878  0.39272526  0.70641692  1  0  -0.295943  -0.445178  0  2.443036  0
O  O73  1  0.15678541  0.60727351  0.29358401  1  0  -0.296025  -0.445343  0  2.443348  0
O  O74  1  0.25394817  0.30232859  0.43402698  1  0  -0.294553  -0.445782  0  2.467381  0
O  O75  1  0.74604694  0.69767350  0.56597170  1  0  -0.294565  -0.44582  0  2.467155  0
O  O76  1  0.01867411  0.28841480  0.44014836  1  0  -0.297265  -0.447106  0  2.444061  0
O  O77  1  0.98132447  0.71158730  0.55985274  1  0  -0.297277  -0.447126  0  2.444221  0
