# generated using pymatgen
data_ZnH4C8(N2O)2
_symmetry_space_group_name_H-M   'P 1'
_cell_length_a   7.21731544
_cell_length_b   9.71012073
_cell_length_c   17.32299185
_cell_angle_alpha   102.12979323
_cell_angle_beta   89.99117144
_cell_angle_gamma   111.84394283
_symmetry_Int_Tables_number   1
_chemical_formula_structural   ZnH4C8(N2O)2
_chemical_formula_sum   'Zn4 H16 C32 N16 O8'
_cell_volume   1097.60934279
_cell_formula_units_Z   4
loop_
 _symmetry_equiv_pos_site_id
 _symmetry_equiv_pos_as_xyz
  1  'x, y, z'
loop_
 _atom_site_type_symbol
 _atom_site_label
 _atom_site_symmetry_multiplicity
 _atom_site_fract_x
 _atom_site_fract_y
 _atom_site_fract_z
 _atom_site_occupancy
 _atom_site_pbe_bader_charge
 _atom_site_pbe_bader_spin_density
 _atom_site_pbe_cm5_charge
 _atom_site_pbe_ddec_charge
 _atom_site_pbe_ddec_spin_density
 _atom_site_pbe_ddec_sum_bond_order
 _atom_site_pbe_magmom
Zn  Zn0  1  0.18567481  0.81431709  0.75129815  1  1.293354  0  0.740577  0.835724  0  2.347653  0
Zn  Zn1  1  0.28168618  0.47074053  0.75410505  1  1.280085  0  0.730992  0.80543  0  2.439924  0
Zn  Zn2  1  0.37080900  0.18591143  0.24873299  1  1.297038  0  0.740557  0.835607  0  2.347322  0
Zn  Zn3  1  0.81053930  0.52933470  0.24596780  1  1.283261  0  0.731521  0.806085  0  2.441994  0
H  H4  1  0.86325152  0.80437552  0.60883123  1  0.144442  0  0.103757  0.104415  0  1.03283  0
H  H5  1  0.81113443  0.70897261  0.46222610  1  0.139587  0  0.107999  0.110039  0  1.015761  0
H  H6  1  0.49432482  0.25209096  0.49003897  1  0.113112  0  0.113901  0.121052  0  0.984499  0
H  H7  1  0.54188911  0.34498759  0.63656371  1  0.079044  0  0.102548  0.101963  0  1.029075  0
H  H8  1  0.08671038  0.04866626  0.89453350  1  0.116662  0  0.104067  0.100588  0  1.035287  0
H  H9  1  0.19627069  0.12318142  0.03926943  1  0.11563  0  0.103888  0.096897  0  1.069516  0
H  H10  1  0.73348621  0.47730262  0.00017330  1  0.08128  0  0.107424  0.113146  0  1.007065  0
H  H11  1  0.62993551  0.40414556  0.85570114  1  0.071332  0  0.102523  0.10567  0  1.009588  0
H  H12  1  0.05920405  0.19552991  0.39113522  1  0.142549  0  0.103567  0.103801  0  1.034644  0
H  H13  1  0.10286174  0.29096767  0.53771570  1  0.139962  0  0.108512  0.110852  0  1.016013  0
H  H14  1  0.24109344  0.74756321  0.50992784  1  0.107864  0  0.113719  0.120569  0  0.98474  0
H  H15  1  0.19516776  0.65467668  0.36349442  1  0.076305  0  0.102797  0.102256  0  1.030325  0
H  H16  1  0.03749948  0.95144390  0.10544836  1  0.10437  0  0.104027  0.100524  0  1.03442  0
H  H17  1  0.07281434  0.87688711  0.96071858  1  0.129312  0  0.104142  0.097116  0  1.070997  0
H  H18  1  0.25528377  0.52275850  0.99986914  1  0.089144  0  0.107693  0.113693  0  1.006353  0
H  H19  1  0.22474485  0.59592467  0.14431730  1  0.075253  0  0.102504  0.105537  0  1.009605  0
C  C20  1  0.72017068  0.63995013  0.71815931  1  0.917612  0  0.233547  0.284633  0  4.013718  0
C  C21  1  0.70163807  0.58111090  0.63224047  1  0.029809  0  -0.003427  0.025121  0  4.009872  0
C  C22  1  0.78072649  0.68368269  0.58307336  1  -0.069534  0  -0.082691  -0.109263  0  3.940461  0
C  C23  1  0.75259530  0.63084503  0.50123067  1  -0.047059  0  -0.070678  -0.062549  0  3.930278  0
C  C24  1  0.64767628  0.47547801  0.46780235  1  0.055731  0  -0.014265  -0.040732  0  3.963223  0
C  C25  1  0.57435439  0.37251810  0.51681124  1  -0.062575  0  -0.071425  -0.067446  0  3.941691  0
C  C26  1  0.60030073  0.42513733  0.59871593  1  -0.034635  0  -0.084791  -0.115044  0  3.960565  0
C  C27  1  0.61249256  0.42238617  0.38006416  1  1.515071  0  0.2236  0.591479  0  4.168337  0
C  C28  1  0.28966558  0.16885958  0.78065417  1  0.973445  0  0.23591  0.284388  0  4.017949  0
C  C29  1  0.35355963  0.21918124  0.86566745  1  0.022354  0  -0.004534  0.021161  0  4.0222  0
C  C30  1  0.22991899  0.14078725  0.91752660  1  -0.121157  0  -0.081739  -0.104597  0  3.949793  0
C  C31  1  0.29052583  0.18073920  0.99784398  1  0.046207  0  -0.076362  -0.069837  0  3.949043  0
C  C32  1  0.47336743  0.29944091  0.02757128  1  -0.019106  0  -0.009275  -0.028005  0  3.94781  0
C  C33  1  0.59297088  0.38299577  0.97652800  1  0.028303  0  -0.072645  -0.072195  0  3.936794  0
C  C34  1  0.53395919  0.34222456  0.89567826  1  -0.047128  0  -0.082929  -0.114726  0  3.966105  0
C  C35  1  0.53787475  0.33321608  0.11359045  1  1.55767  0  0.229916  0.608143  0  4.153966  0
C  C36  1  0.07955794  0.35996664  0.28183786  1  0.931558  0  0.234266  0.285796  0  4.014858  0
C  C37  1  0.11969810  0.41861434  0.36776010  1  0.030295  0  -0.003846  0.02409  0  4.010517  0
C  C38  1  0.09691828  0.31615803  0.41690657  1  -0.069822  0  -0.082328  -0.108245  0  3.942509  0
C  C39  1  0.12187129  0.36901841  0.49873845  1  -0.043507  0  -0.071392  -0.06299  0  3.932369  0
C  C40  1  0.17196221  0.52431296  0.53217963  1  -0.018679  0  -0.013988  -0.041653  0  3.964241  0
C  C41  1  0.20099178  0.62720042  0.48318032  1  0.066577  0  -0.071421  -0.066675  0  3.94313  0
C  C42  1  0.17396195  0.57454800  0.40129622  1  -0.083969  0  -0.085518  -0.115707  0  3.962077  0
C  C43  1  0.19022486  0.57739797  0.61991639  1  1.526981  0  0.223977  0.59167  0  4.169124  0
C  C44  1  0.11997324  0.83124526  0.21937096  1  0.977124  0  0.236094  0.284409  0  4.016567  0
C  C45  1  0.13341762  0.78088089  0.13433437  1  -0.008487  0  -0.003657  0.021851  0  4.021199  0
C  C46  1  0.08840594  0.85923970  0.08243810  1  -0.047839  0  -0.082035  -0.104103  0  3.948168  0
C  C47  1  0.10924504  0.81926311  0.00212268  1  -0.021724  0  -0.076916  -0.071359  0  3.950493  0
C  C48  1  0.17325148  0.70055589  0.97239325  1  -0.018806  0  -0.008272  -0.026212  0  3.944116  0
C  C49  1  0.20905030  0.61701687  0.02348723  1  -0.027192  0  -0.073109  -0.072988  0  3.936137  0
C  C50  1  0.19072826  0.65783741  0.10433977  1  0.009598  0  -0.08334  -0.115302  0  3.966437  0
C  C51  1  0.20467654  0.66692315  0.88642014  1  1.569069  0  0.229479  0.606263  0  4.153398  0
N  N52  1  0.57017846  0.60958089  0.76612721  1  -0.780262  0  -0.24756  -0.290336  0  3.536  0
N  N53  1  0.64770285  0.69416314  0.84016488  1  -0.077334  0  -0.085776  -0.050659  0  3.224038  0
N  N54  1  0.83652312  0.77239212  0.83776932  1  -0.085278  0  -0.078647  -0.047364  0  3.2566  0
N  N55  1  0.88720157  0.74067349  0.76227968  1  -0.783325  0  -0.246644  -0.287714  0  3.497878  0
N  N56  1  0.25980957  0.25434732  0.73383015  1  -0.783219  0  -0.24486  -0.277198  0  3.508435  0
N  N57  1  0.19533859  0.16271385  0.66006100  1  -0.093198  0  -0.082079  -0.052516  0  3.222273  0
N  N58  1  0.18617238  0.02750490  0.66169635  1  -0.076207  0  -0.083046  -0.054785  0  3.230163  0
N  N59  1  0.24438378  0.02691616  0.73649415  1  -0.798872  0  -0.23956  -0.277148  0  3.471809  0
N  N60  1  0.96017762  0.39046290  0.23385992  1  -0.777961  0  -0.248085  -0.292038  0  3.537665  0
N  N61  1  0.95353794  0.30619842  0.15977403  1  -0.083489  0  -0.08517  -0.048613  0  3.224148  0
N  N62  1  0.06417139  0.22807098  0.16214739  1  -0.106674  0  -0.079166  -0.049237  0  3.256388  0
N  N63  1  0.14616042  0.25950795  0.23768081  1  -0.775176  0  -0.246461  -0.286915  0  3.496127  0
N  N64  1  0.00488196  0.74569099  0.26625286  1  -0.79365  0  -0.245083  -0.276266  0  3.508633  0
N  N65  1  0.03207130  0.83734843  0.34000624  1  -0.084848  0  -0.082131  -0.053575  0  3.223063  0
N  N66  1  0.15797796  0.97261905  0.33831861  1  -0.08176  0  -0.083672  -0.055147  0  3.231242  0
N  N67  1  0.21662963  0.97322928  0.26349741  1  -0.803195  0  -0.239192  -0.276404  0  3.471083  0
O  O68  1  0.53572079  0.27886552  0.35043450  1  -1.169606  0  -0.315816  -0.542149  0  2.367709  0
O  O69  1  0.65890082  0.52459732  0.33960061  1  -1.178639  0  -0.324012  -0.551017  0  2.390098  0
O  O70  1  0.48240043  0.22167942  0.14778263  1  -1.183043  0  -0.320107  -0.561647  0  2.401769  0
O  O71  1  0.64544697  0.47173765  0.14624922  1  -1.173185  0  -0.318392  -0.533734  0  2.339833  0
O  O72  1  0.25656027  0.72090684  0.64950449  1  -1.171855  0  -0.315501  -0.541885  0  2.369245  0
O  O73  1  0.13485220  0.47521482  0.66040466  1  -1.183271  0  -0.324323  -0.550834  0  2.39023  0
O  O74  1  0.26104120  0.77861657  0.85228741  1  -1.184522  0  -0.319629  -0.560608  0  2.400349  0
O  O75  1  0.17396169  0.52846363  0.85382837  1  -1.167204  0  -0.31801  -0.532547  0  2.339006  0
