# generated using pymatgen
data_MnH22C30(NO)6
_symmetry_space_group_name_H-M   'P 1'
_cell_length_a   7.03433253
_cell_length_b   8.77266711
_cell_length_c   10.03877369
_cell_angle_alpha   74.86878185
_cell_angle_beta   88.50421207
_cell_angle_gamma   88.66556646
_symmetry_Int_Tables_number   1
_chemical_formula_structural   MnH22C30(NO)6
_chemical_formula_sum   'Mn1 H22 C30 N6 O6'
_cell_volume   597.72297587
_cell_formula_units_Z   1
loop_
 _symmetry_equiv_pos_site_id
 _symmetry_equiv_pos_as_xyz
  1  'x, y, z'
loop_
 _atom_site_type_symbol
 _atom_site_label
 _atom_site_symmetry_multiplicity
 _atom_site_fract_x
 _atom_site_fract_y
 _atom_site_fract_z
 _atom_site_occupancy
 _atom_site_pbe_cm5_charge
 _atom_site_pbe_ddec_charge
 _atom_site_pbe_ddec_spin_density
 _atom_site_pbe_ddec_sum_bond_order
 _atom_site_pbe_magmom
Mn  Mn0  1  0.99999906  0.00000074  0.50000100  1  0.653177  0.582303  1.307328  3.299195  1.263
H  H1  1  0.24901230  0.75098029  0.12411827  1  0.301571  0.278526  1e-06  1.022744  0.0
H  H2  1  0.75098805  0.24902027  0.87588154  1  0.301568  0.27853  1e-06  1.022759  0.0
H  H3  1  0.98153182  0.36159749  0.45713914  1  0.116865  0.081051  -0.000931  1.044557  0.0
H  H4  1  0.01847134  0.63840540  0.54286309  1  0.116874  0.081082  -0.000931  1.04453  0.0
H  H5  1  0.04616590  0.58871701  0.26043379  1  0.110708  0.112107  -7.9e-05  1.030698  0.0
H  H6  1  0.95383443  0.41128473  0.73956576  1  0.110707  0.112111  -7.9e-05  1.030709  0.0
H  H7  1  0.40338939  0.28246894  0.08486019  1  0.108944  0.113067  -4.3e-05  1.025373  0.0
H  H8  1  0.59660676  0.71752810  0.91513849  1  0.108945  0.113062  -4.3e-05  1.02534  0.0
H  H9  1  0.33002278  0.06575149  0.29145975  1  0.122184  0.101535  -0.000321  1.041709  0.0
H  H10  1  0.66997333  0.93424789  0.70854040  1  0.122176  0.101547  -0.000321  1.041704  0.0
H  H11  1  0.27983605  0.01472648  0.05619703  1  0.11262  0.130026  -0.000371  1.026498  0.0
H  H12  1  0.72016432  0.98527293  0.94379905  1  0.112613  0.130041  -0.000372  1.026452  0.0
H  H13  1  0.14408717  0.25179505  0.63526334  1  0.114866  0.075739  -0.000689  1.041208  0.0
H  H14  1  0.85591030  0.74820786  0.36473700  1  0.114865  0.075738  -0.000689  1.041193  0.0
H  H15  1  0.23708765  0.26730746  0.86963188  1  0.106207  0.113854  -0.000124  1.031784  0.0
H  H16  1  0.76291129  0.73269307  0.13037095  1  0.106234  0.113867  -0.000124  1.031747  0.0
H  H17  1  0.14647724  0.76168116  0.75748947  1  0.120955  0.097657  -0.000397  1.074505  0.0
H  H18  1  0.85352600  0.23831702  0.24251181  1  0.120934  0.097598  -0.000397  1.074575  0.0
H  H19  1  0.50296809  0.62337887  0.24828159  1  0.09855  0.092871  -0.000317  1.051903  0.0
H  H20  1  0.49703226  0.37662169  0.75171822  1  0.098554  0.092862  -0.000317  1.051926  0.0
H  H21  1  0.67361562  0.37131707  0.33891186  1  0.10066  0.104017  -2.4e-05  1.060194  0.0
H  H22  1  0.32638329  0.62868467  0.66108771  1  0.100654  0.104015  -2.4e-05  1.060187  0.0
C  C23  1  0.07768453  0.34769788  0.37460855  1  0.03967  0.069364  -0.018197  3.92574  -0.01
C  C24  1  0.92231581  0.65230385  0.62539200  1  0.039662  0.06937  -0.0182  3.925833  -0.01
C  C25  1  0.11334685  0.47528381  0.26264608  1  -0.078841  -0.139367  0.00033  3.967172  0.002
C  C26  1  0.88665493  0.52471674  0.73735470  1  -0.078876  -0.139413  0.000331  3.967264  0.002
C  C27  1  0.22507805  0.45418556  0.15131628  1  -0.000166  0.005029  -0.028126  3.96911  -0.017
C  C28  1  0.77492233  0.54581382  0.84868379  1  -0.000176  0.005013  -0.02813  3.969036  -0.017
C  C29  1  0.30934823  0.30474131  0.16567411  1  -0.075506  -0.130377  -0.002622  3.939351  0.0
C  C30  1  0.69065072  0.69525807  0.83432599  1  -0.075508  -0.130347  -0.002622  3.939341  0.0
C  C31  1  0.27025473  0.18316059  0.28175442  1  0.045577  0.080216  -0.013497  3.885463  -0.007
C  C32  1  0.72974281  0.81683878  0.71824670  1  0.045596  0.080243  -0.013499  3.885496  -0.007
C  C33  1  0.24471196  0.57727089  0.01769239  1  0.24028  0.469022  -0.00669  4.111493  -0.002
C  C34  1  0.75528987  0.42272729  0.98230891  1  0.240358  0.469113  -0.00669  4.111473  -0.002
C  C35  1  0.21986956  0.86873262  0.91986799  1  0.104318  0.211758  -0.00123  4.002188  -0.001
C  C36  1  0.78013224  0.13126675  0.08013205  1  0.104237  0.211829  -0.00123  4.002133  -0.001
C  C37  1  0.24465962  0.01393491  0.95139707  1  -0.075962  -0.135478  -0.003231  3.904701  -0.002
C  C38  1  0.75534217  0.98606447  0.04860197  1  -0.075904  -0.135548  -0.003232  3.904618  -0.002
C  C39  1  0.16494223  0.14519816  0.71808138  1  0.042048  0.073295  -0.002752  3.933384  -0.001
C  C40  1  0.83505670  0.85480240  0.28191946  1  0.042079  0.073347  -0.002753  3.933323  -0.001
C  C41  1  0.21920995  0.15272647  0.84851648  1  -0.085877  -0.112436  -0.001758  3.996194  -0.001
C  C42  1  0.78079328  0.84727288  0.15148553  1  -0.085937  -0.112433  -0.001758  3.996211  -0.001
C  C43  1  0.16713336  0.87111666  0.78555356  1  0.0425  -0.017417  -0.002292  3.857377  -0.001
C  C44  1  0.83286841  0.12888392  0.21444423  1  0.042569  -0.017313  -0.002293  3.857315  -0.001
C  C45  1  0.28593436  0.78894806  0.38817808  1  0.204882  0.540678  -0.013599  4.19345  -0.006
C  C46  1  0.71406455  0.21105368  0.61182150  1  0.204802  0.54054  -0.013598  4.193464  -0.006
C  C47  1  0.40107346  0.64341415  0.44742606  1  -0.026582  -0.050105  -0.010264  4.00026  -0.005
C  C48  1  0.59892261  0.35658760  0.55257357  1  -0.02649  -0.049945  -0.010265  4.000078  -0.005
C  C49  1  0.50197191  0.56913706  0.35870113  1  -0.091709  -0.10079  -0.006051  4.008906  -0.003
C  C50  1  0.49802702  0.43086350  0.64129871  1  -0.091735  -0.100834  -0.006051  4.00893  -0.003
C  C51  1  0.59875546  0.42725373  0.41006079  1  -0.093031  -0.100997  -0.003054  3.970038  -0.001
C  C52  1  0.40124203  0.57274802  0.58993882  1  -0.092971  -0.100899  -0.003055  3.969967  -0.001
N  N53  1  0.14506511  0.19912286  0.38310944  1  -0.321649  -0.187894  -0.024386  3.516733  -0.021
N  N54  1  0.85493520  0.80088005  0.61689085  1  -0.321645  -0.187992  -0.024386  3.516842  -0.021
N  N55  1  0.23671407  0.73041838  0.02700729  1  -0.394884  -0.383375  -0.002756  3.577377  -0.002
N  N56  1  0.76328773  0.26958098  0.97299376  1  -0.394854  -0.383424  -0.002756  3.577474  -0.002
N  N57  1  0.13511319  0.00704548  0.68782523  1  -0.306002  -0.153099  -0.01634  3.54231  -0.017
N  N58  1  0.86488573  0.99295625  0.31217634  1  -0.306006  -0.153168  -0.01634  3.542227  -0.017
O  O59  1  0.26355888  0.53806935  0.90746145  1  -0.284496  -0.47664  -0.007354  2.158152  -0.006
O  O60  1  0.73644003  0.46193239  0.09253813  1  -0.284585  -0.476727  -0.007355  2.158183  -0.006
O  O61  1  0.20763003  0.85544680  0.47730248  1  -0.306867  -0.489609  0.020243  2.506043  0.016
O  O62  1  0.79237028  0.14455611  0.52269781  1  -0.306852  -0.489533  0.020242  2.506047  0.016
O  O63  1  0.26753097  0.83797413  0.25892507  1  -0.31846  -0.56344  -0.006736  2.268692  -0.005
O  O64  1  0.73246794  0.16202762  0.74107351  1  -0.318438  -0.563428  -0.006735  2.268721  -0.005
