# generated using pymatgen
data_CdH18C24N6Cl2O3
_symmetry_space_group_name_H-M   'P 1'
_cell_length_a   8.55550772
_cell_length_b   10.05168576
_cell_length_c   13.36548558
_cell_angle_alpha   81.62709129
_cell_angle_beta   88.77110184
_cell_angle_gamma   87.63585712
_symmetry_Int_Tables_number   1
_chemical_formula_structural   CdH18C24N6Cl2O3
_chemical_formula_sum   'Cd2 H36 C48 N12 Cl4 O6'
_cell_volume   1136.03777840
_cell_formula_units_Z   2
loop_
 _symmetry_equiv_pos_site_id
 _symmetry_equiv_pos_as_xyz
  1  'x, y, z'
loop_
 _atom_site_type_symbol
 _atom_site_label
 _atom_site_symmetry_multiplicity
 _atom_site_fract_x
 _atom_site_fract_y
 _atom_site_fract_z
 _atom_site_occupancy
 _atom_site_hle17_bader_spin_density
 _atom_site_hle17_ddec_charge
 _atom_site_hle17_ddec_spin_density
 _atom_site_hle17_ddec_sum_bond_order
 _atom_site_hle17_magmom
 _atom_site_hse06_10hf_bader_charge
 _atom_site_hse06_10hf_bader_spin_density
 _atom_site_hse06_10hf_ddec_charge
 _atom_site_hse06_10hf_ddec_spin_density
 _atom_site_hse06_10hf_ddec_sum_bond_order
 _atom_site_hse06_10hf_magmom
 _atom_site_hse06_bader_spin_density
 _atom_site_hse06_ddec_charge
 _atom_site_hse06_ddec_spin_density
 _atom_site_hse06_ddec_sum_bond_order
 _atom_site_hse06_magmom
 _atom_site_pbe_bader_spin_density
 _atom_site_pbe_cm5_charge
 _atom_site_pbe_ddec_charge
 _atom_site_pbe_ddec_spin_density
 _atom_site_pbe_ddec_sum_bond_order
 _atom_site_pbe_magmom
Cd  Cd0  1  0.49999984  0.50000137  0.50000030  1  0  0.984548  0  1.879859  0  1.189033  0  0.815249  0  2.325376  0  0  0.861501  0  2.286017  0  0  0.626864  0.783433  0  2.352664  0
Cd  Cd1  1  0.49999866  0.00000020  0.49999941  1  0  0.967356  0  1.839133  0  1.209526  0  0.765642  0  2.285988  0  0  0.817565  0  2.247321  0  0  0.694958  0.729877  0  2.313018  0
H  H2  1  0.64901473  0.72522358  0.17231471  1  0  0.304417  0  0.882837  0  0.479555  0  0.286744  0  0.948396  0  0  0.293638  0  0.943386  0  0  0.313035  0.281817  0  0.951954  0
H  H3  1  0.35098384  0.27477617  0.82768399  1  0  0.304455  0  0.882795  0  0.479572  0  0.286771  0  0.948381  0  0  0.293666  0  0.943368  0  0  0.313047  0.281847  0  0.951932  0
H  H4  1  0.55469012  0.36521144  0.17465709  1  0  0.296252  0  0.90052  0  0.477507  0  0.27967  0  0.964555  0  0  0.286429  0  0.959821  0  0  0.305588  0.274725  0  0.968193  0
H  H5  1  0.44530840  0.63479032  0.82534215  1  0  0.296217  0  0.900594  0  0.477513  0  0.279726  0  0.964537  0  0  0.286484  0  0.959803  0  0  0.305581  0.274777  0  0.968188  0
H  H6  1  0.81592254  0.42310138  0.72079245  1  0  0.29206  0  0.918682  0  0.507895  0  0.274428  0  0.985859  0  0  0.281763  0  0.980468  0  0  0.290783  0.269139  0  0.989827  0
H  H7  1  0.18407953  0.57689932  0.27920758  1  0  0.292034  0  0.918698  0  0.507865  0  0.274414  0  0.985851  0  0  0.281747  0  0.980466  0  0  0.290776  0.269124  0  0.989827  0
H  H8  1  0.81025406  0.12419219  0.41146111  1  0  0.071045  0  0.998726  0  0.095744  0  0.079276  0  1.066552  0  0  0.081923  0  1.06377  0  0  0.097863  0.077535  0  1.068325  0
H  H9  1  0.18974224  0.87580657  0.58853998  1  0  0.071042  0  0.998676  0  0.095758  0  0.079276  0  1.066499  0  0  0.081923  0  1.063717  0  0  0.09786  0.077538  0  1.068268  0
H  H10  1  0.97814049  0.14749602  0.25482813  1  0  0.106467  0  0.956777  0  0.0921  0  0.117367  0  1.013672  0  0  0.119978  0  1.013512  0  0  0.106528  0.115482  0  1.014007  0
H  H11  1  0.02185932  0.85250269  0.74517365  1  0  0.10648  0  0.956763  0  0.092093  0  0.117378  0  1.01366  0  0  0.119987  0  1.013503  0  0  0.106532  0.115495  0  1.013996  0
H  H12  1  0.94782585  0.98652294  0.13030473  1  0  0.12988  0  0.9652  0  0.169043  0  0.138977  0  1.022023  0  0  0.142996  0  1.018618  0  0  0.115839  0.136017  0  1.024585  0
H  H13  1  0.05217393  0.01347678  0.86969694  1  0  0.129879  0  0.965227  0  0.168871  0  0.138996  0  1.02203  0  0  0.143002  0  1.018641  0  0  0.115843  0.136037  0  1.024595  0
H  H14  1  0.59090956  0.79711095  0.33007820  1  0  0.089018  0  0.9695  0  0.1174  0  0.090852  0  1.047287  0  0  0.093445  0  1.045351  0  0  0.10348  0.089162  0  1.048347  0
H  H15  1  0.40908432  0.20288985  0.66992198  1  0  0.08896  0  0.969571  0  0.117511  0  0.090817  0  1.047344  0  0  0.093413  0  1.045403  0  0  0.10347  0.089113  0  1.048412  0
H  H16  1  0.97066185  0.71859197  0.90831136  1  0  0.11192  0  0.949824  0  0.135601  0  0.118346  0  1.016093  0  0  0.122959  0  1.01172  0  0  0.111795  0.115097  0  1.019004  0
H  H17  1  0.02933791  0.28140776  0.09168881  1  0  0.111945  0  0.949851  0  0.135603  0  0.118369  0  1.016122  0  0  0.122982  0  1.011749  0  0  0.111808  0.115117  0  1.019032  0
H  H18  1  0.75790319  0.34767939  0.86953309  1  0  0.104578  0  0.96551  0  0.133488  0  0.109505  0  1.036435  0  0  0.114149  0  1.031319  0  0  0.106813  0.106252  0  1.039843  0
H  H19  1  0.24209658  0.65231935  0.13046570  1  0  0.104558  0  0.965543  0  0.133504  0  0.109514  0  1.036437  0  0  0.114158  0  1.031319  0  0  0.106791  0.106256  0  1.03984  0
H  H20  1  0.64930484  0.53391117  0.13290909  1  0  0.090167  0  0.984071  0  0.093445  0  0.096932  0  1.057171  0  0  0.10085  0  1.053111  0  0  0.098679  0.094118  0  1.060065  0
H  H21  1  0.35069374  0.46608858  0.86709036  1  0  0.090186  0  0.984046  0  0.093455  0  0.096921  0  1.057176  0  0  0.100838  0  1.053118  0  0  0.098668  0.094106  0  1.06007  0
H  H22  1  0.39408154  0.09236360  0.04585361  1  0  0.126093  0  0.955028  0  0.147134  0  0.133946  0  1.014129  0  0  0.138122  0  1.01054  0  0  0.113055  0.130931  0  1.016679  0
H  H23  1  0.60592175  0.90763508  0.95414586  1  0  0.126082  0  0.955095  0  0.147141  0  0.133907  0  1.01422  0  0  0.13808  0  1.010636  0  0  0.113071  0.130895  0  1.016771  0
H  H24  1  0.24812598  0.90960740  0.14967109  1  0  0.121905  0  0.935434  0  0.115808  0  0.132714  0  0.990284  0  0  0.136353  0  0.988362  0  0  0.113827  0.130179  0  0.991546  0
H  H25  1  0.75188209  0.09038821  0.85032936  1  0  0.121873  0  0.935384  0  0.115764  0  0.132646  0  0.990272  0  0  0.136283  0  0.988356  0  0  0.113809  0.130114  0  0.991528  0
H  H26  1  0.23810811  0.89984263  0.33893727  1  0  0.067572  0  0.978294  0  0.099024  0  0.074111  0  1.048284  0  0  0.076325  0  1.04658  0  0  0.100426  0.072595  0  1.0495  0
H  H27  1  0.76189519  0.10015605  0.66106295  1  0  0.067605  0  0.978233  0  0.09902  0  0.074119  0  1.048249  0  0  0.076334  0  1.046546  0  0  0.100427  0.072604  0  1.049463  0
H  H28  1  0.49097843  0.24513715  0.32273543  1  0  0.080022  0  0.994711  0  0.137938  0  0.083874  0  1.069952  0  0  0.086884  0  1.067117  0  0  0.097054  0.081896  0  1.071754  0
H  H29  1  0.50901776  0.75486464  0.67726385  1  0  0.080025  0  0.994691  0  0.137971  0  0.083877  0  1.069941  0  0  0.086887  0  1.067103  0  0  0.097061  0.081899  0  1.071743  0
H  H30  1  0.84310028  0.28468713  0.59630671  1  0  0.10607  0  0.980658  0  0.132465  0  0.116091  0  1.044323  0  0  0.119197  0  1.041482  0  0  0.097639  0.113756  0  1.046639  0
H  H31  1  0.15689936  0.71531663  0.40369229  1  0  0.106133  0  0.980674  0  0.132452  0  0.116138  0  1.044334  0  0  0.119246  0  1.041494  0  0  0.097665  0.113803  0  1.04665  0
H  H32  1  0.00514835  0.20784267  0.45622877  1  0  0.102398  0  0.954488  0  0.085368  0  0.116923  0  1.00826  0  0  0.11916  0  1.008025  0  0  0.108372  0.115378  0  1.008401  0
H  H33  1  0.99485252  0.79215906  0.54377117  1  0  0.102395  0  0.954489  0  0.085249  0  0.116917  0  1.008273  0  0  0.119153  0  1.00804  0  0  0.108394  0.11537  0  1.008414  0
H  H34  1  0.27024805  0.30250187  0.41824507  1  0  0.074977  0  0.96938  0  0.116934  0  0.079432  0  1.045295  0  0  0.081495  0  1.043385  0  0  0.105482  0.077971  0  1.046595  0
H  H35  1  0.72975290  0.69749684  0.58175444  1  0  0.074979  0  0.969374  0  0.116985  0  0.079429  0  1.045286  0  0  0.08149  0  1.043381  0  0  0.105508  0.077967  0  1.046587  0
H  H36  1  0.22290413  0.53421058  0.65045918  1  0  0.100976  0  0.987593  0  0.179304  0  0.102266  0  1.060734  0  0  0.105903  0  1.057086  0  0  0.10799  0.099658  0  1.063417  0
H  H37  1  0.77709912  0.46578911  0.34954018  1  0  0.100903  0  0.987669  0  0.179345  0  0.102241  0  1.060759  0  0  0.105883  0  1.057103  0  0  0.107969  0.099635  0  1.063441  0
C  C38  1  0.80477387  0.05407012  0.35694552  1  0  0.090722  0  3.743434  0  0.463214  0  0.054175  0  3.999845  0  0  0.059773  0  4.018753  0  0  0.023287  0.050694  0  3.986605  0
C  C39  1  0.19522241  0.94592963  0.64305696  1  0  0.090792  0  3.743452  0  0.463104  0  0.054264  0  3.999826  0  0  0.059863  0  4.018732  0  0  0.023356  0.05078  0  3.986584  0
C  C40  1  0.89705681  0.06605263  0.26971467  1  0  -0.091987  0  3.762231  0  -0.009882  0  -0.103438  0  4.016099  0  0  -0.108823  0  4.037946  0  0  -0.085462  -0.100091  0  4.001515  0
C  C41  1  0.10294069  0.93394511  0.73028725  1  0  -0.092038  0  3.762276  0  -0.009771  0  -0.103494  0  4.01616  0  0  -0.108877  0  4.038003  0  0  -0.085483  -0.100145  0  4.001577  0
C  C42  1  0.87980336  0.97771902  0.20019207  1  0  -0.102241  0  3.659115  0  0.022398  0  -0.128531  0  3.904307  0  0  -0.128333  0  3.921319  0  0  -0.072529  -0.128461  0  3.892995  0
C  C43  1  0.12019526  0.02227971  0.79980898  1  0  -0.10224  0  3.659052  0  0.022522  0  -0.128543  0  3.904267  0  0  -0.128336  0  3.921283  0  0  -0.072534  -0.128473  0  3.892959  0
C  C44  1  0.77121958  0.87574254  0.22209888  1  0  0.215523  0  3.760452  0  0.306353  0  0.214608  0  4.006879  0  0  0.218595  0  4.02919  0  0  0.104941  0.211455  0  3.992017  0
C  C45  1  0.22877784  0.12425721  0.77790133  1  0  0.215501  0  3.76045  0  0.306411  0  0.214552  0  4.006922  0  0  0.218538  0  4.029232  0  0  0.104907  0.211395  0  3.992065  0
C  C46  1  0.67983791  0.87218885  0.31113806  1  0  0.030391  0  3.667137  0  0.558282  0  -0.008044  0  3.924497  0  0  -0.00412  0  3.944533  0  0  0.038143  -0.010144  0  3.910508  0
C  C47  1  0.32015950  0.12781092  0.68886141  1  0  0.030469  0  3.667139  0  0.558099  0  -0.00795  0  3.924433  0  0  -0.004027  0  3.944469  0  0  0.038202  -0.010035  0  3.910448  0
C  C48  1  0.84912157  0.75046117  0.08259553  1  0  0.538924  0  3.812698  0  1.421847  0  0.492236  0  4.100547  0  0  0.520787  0  4.101651  0  0  0.242514  0.473181  0  4.099094  0
C  C49  1  0.15087582  0.24953959  0.91740458  1  0  0.538869  0  3.812655  0  1.421418  0  0.492221  0  4.100463  0  0  0.520771  0  4.101572  0  0  0.242532  0.473175  0  4.098998  0
C  C50  1  0.80898263  0.63968915  0.02494705  1  0  -0.069571  0  3.756083  0  0.046297  0  -0.046113  0  3.998753  0  0  -0.056056  0  4.022463  0  0  -0.016427  -0.040124  0  3.982899  0
C  C51  1  0.19101946  0.36031055  0.97505308  1  0  -0.069505  0  3.756031  0  0.046305  0  -0.0461  0  3.998731  0  0  -0.056044  0  4.022444  0  0  -0.016439  -0.04011  0  3.982864  0
C  C52  1  0.88914949  0.63964145  0.93271825  1  0  -0.045249  0  3.681654  0  -0.076  0  -0.084628  0  3.931612  0  0  -0.079617  0  3.948526  0  0  -0.063523  -0.08708  0  3.919762  0
C  C53  1  0.11085024  0.36035928  0.06728182  1  0  -0.045282  0  3.681633  0  -0.075987  0  -0.084642  0  3.9316  0  0  -0.079632  0  3.948518  0  0  -0.063519  -0.087086  0  3.91974  0
C  C54  1  0.87022466  0.53760394  0.87414214  1  0  -0.070943  0  3.776565  0  -0.019844  0  -0.04803  0  4.017942  0  0  -0.058172  0  4.041658  0  0  -0.017293  -0.041923  0  4.002103  0
C  C55  1  0.12977624  0.46239678  0.12585790  1  0  -0.070933  0  3.776634  0  -0.019842  0  -0.048032  0  4.018007  0  0  -0.058173  0  4.04172  0  0  -0.017307  -0.04193  0  4.002169  0
C  C56  1  0.77203587  0.43276747  0.90983015  1  0  -0.037736  0  3.675661  0  -0.014448  0  -0.080682  0  3.932331  0  0  -0.074153  0  3.947117  0  0  -0.066163  -0.084279  0  3.921875  0
C  C57  1  0.22796389  0.56723225  0.09017003  1  0  -0.037787  0  3.675737  0  -0.014462  0  -0.080735  0  3.932403  0  0  -0.074205  0  3.94719  0  0  -0.066184  -0.084325  0  3.92194  0
C  C58  1  0.69239035  0.43024897  0.00252829  1  0  -0.065012  0  3.735701  0  -0.00142  0  -0.041774  0  3.978224  0  0  -0.051889  0  4.001243  0  0  -0.014165  -0.035639  0  3.962875  0
C  C59  1  0.30760939  0.56975077  0.99747113  1  0  -0.06487  0  3.735575  0  -0.001394  0  -0.041683  0  3.978158  0  0  -0.051798  0  4.001177  0  0  -0.014106  -0.035545  0  3.962798  0
C  C60  1  0.70988272  0.53472311  0.06001768  1  0  -0.052101  0  3.666487  0  -0.058492  0  -0.092867  0  3.923403  0  0  -0.087258  0  3.939846  0  0  -0.068392  -0.096165  0  3.912225  0
C  C61  1  0.29011700  0.46527763  0.93998165  1  0  -0.052179  0  3.666453  0  -0.058521  0  -0.092896  0  3.923414  0  0  -0.087288  0  3.939858  0  0  -0.068401  -0.096198  0  3.912234  0
C  C62  1  0.59549688  0.30965838  0.03311826  1  0  0.546349  0  3.823917  0  1.420139  0  0.501755  0  4.106037  0  0  0.530493  0  4.10712  0  0  0.243815  0.482606  0  4.104649  0
C  C63  1  0.40450281  0.69034337  0.96688021  1  0  0.546331  0  3.823941  0  1.420058  0  0.501725  0  4.106106  0  0  0.530461  0  4.107193  0  0  0.243819  0.482583  0  4.104706  0
C  C64  1  0.44932261  0.18610847  0.17633938  1  0  0.215982  0  3.775919  0  0.274094  0  0.214768  0  4.021762  0  0  0.218888  0  4.044763  0  0  0.103989  0.211412  0  4.006538  0
C  C65  1  0.55067713  0.81389226  0.82366143  1  0  0.215939  0  3.775959  0  0.274082  0  0.214726  0  4.021793  0  0  0.218846  0  4.044795  0  0  0.103977  0.21137  0  4.006575  0
C  C66  1  0.38205950  0.08851206  0.12720624  1  0  -0.094696  0  3.650975  0  0.011444  0  -0.121635  0  3.901102  0  0  -0.121209  0  3.917939  0  0  -0.071094  -0.121573  0  3.889844  0
C  C67  1  0.61794265  0.91148563  0.87279411  1  0  -0.094647  0  3.651029  0  0.011418  0  -0.121544  0  3.901123  0  0  -0.121116  0  3.917959  0  0  -0.07109  -0.121482  0  3.889872  0
C  C68  1  0.30204093  0.98623029  0.18590966  1  0  -0.094525  0  3.729207  0  0.008913  0  -0.106003  0  3.982119  0  0  -0.111141  0  4.002753  0  0  -0.08071  -0.10271  0  3.967798  0
C  C69  1  0.69796241  0.01376638  0.81409002  1  0  -0.094591  0  3.729144  0  0.008991  0  -0.106049  0  3.982055  0  0  -0.111186  0  4.002684  0  0  -0.080739  -0.102756  0  3.967734  0
C  C70  1  0.29508013  0.98074868  0.29056682  1  0  0.095597  0  3.756394  0  0.467055  0  0.062117  0  4.01633  0  0  0.06765  0  4.035245  0  0  0.025271  0.058543  0  4.003122  0
C  C71  1  0.70492200  0.01925002  0.70943342  1  0  0.095655  0  3.75633  0  0.467052  0  0.062211  0  4.016226  0  0  0.067742  0  4.035141  0  0  0.025285  0.058633  0  4.003019  0
C  C72  1  0.43572017  0.17323837  0.28204068  1  0  0.016061  0  3.703427  0  0.545386  0  -0.019892  0  3.957832  0  0  -0.016349  0  3.975769  0  0  0.029818  -0.021932  0  3.945233  0
C  C73  1  0.56427836  0.82676338  0.71795931  1  0  0.016134  0  3.703384  0  0.545401  0  -0.019833  0  3.957805  0  0  -0.016289  0  3.97574  0  0  0.029814  -0.021872  0  3.9452  0
C  C74  1  0.97086793  0.53883447  0.78128028  1  0  0.539227  0  3.811834  0  1.409297  0  0.494462  0  4.093125  0  0  0.52333  0  4.093558  0  0  0.240999  0.475106  0  4.092326  0
C  C75  1  0.02913414  0.46116624  0.21871975  1  0  0.539128  0  3.811957  0  1.409245  0  0.494367  0  4.093253  0  0  0.523237  0  4.093688  0  0  0.240948  0.47501  0  4.092456  0
C  C76  1  0.02090581  0.41374387  0.63663149  1  0  0.218123  0  3.773321  0  0.322131  0  0.21793  0  4.015331  0  0  0.222391  0  4.037387  0  0  0.104048  0.214605  0  4.000447  0
C  C77  1  0.97909623  0.58625785  0.36336843  1  0  0.218244  0  3.773237  0  0.322243  0  0.218131  0  4.015111  0  0  0.222598  0  4.037167  0  0  0.104087  0.214798  0  4.000242  0
C  C78  1  0.96080378  0.32065201  0.58024111  1  0  -0.107482  0  3.679967  0  0.001746  0  -0.131712  0  3.927845  0  0  -0.131901  0  3.946494  0  0  -0.075176  -0.131255  0  3.915213  0
C  C79  1  0.03919708  0.67934972  0.41975808  1  0  -0.107656  0  3.680085  0  0.001729  0  -0.131886  0  3.927923  0  0  -0.132074  0  3.946562  0  0  -0.075251  -0.131423  0  3.91529  0
C  C80  1  0.04956561  0.27906617  0.50152125  1  0  -0.091346  0  3.749262  0  0.023916  0  -0.105625  0  4.004378  0  0  -0.110438  0  4.025228  0  0  -0.086212  -0.102498  0  3.990197  0
C  C81  1  0.95043646  0.72093454  0.49847878  1  0  -0.091286  0  3.749219  0  0.024005  0  -0.105574  0  4.004338  0  0  -0.110386  0  4.025188  0  0  -0.086192  -0.102445  0  3.990155  0
C  C82  1  0.19648621  0.33102171  0.47958852  1  0  0.110822  0  3.730395  0  0.426496  0  0.071146  0  3.994403  0  0  0.07788  0  4.013138  0  0  0.031583  0.066639  0  3.98178  0
C  C83  1  0.80351585  0.66897900  0.52041076  1  0  0.110846  0  3.730281  0  0.426486  0  0.071164  0  3.99433  0  0  0.077898  0  4.013063  0  0  0.031536  0.066653  0  3.981706  0
C  C84  1  0.17051686  0.46155211  0.61011571  1  0  0.027098  0  3.667782  0  0.557012  0  -0.013501  0  3.924029  0  0  -0.008944  0  3.941295  0  0  0.033394  -0.016538  0  3.912409  0
C  C85  1  0.82948754  0.53844857  0.38988353  1  0  0.027124  0  3.667845  0  0.557186  0  -0.013532  0  3.924035  0  0  -0.008976  0  3.941299  0  0  0.033415  -0.016569  0  3.912416  0
N  N86  1  0.69618033  0.96018446  0.37616331  1  0  -0.32731  0  3.328247  0  -1.270381  0  -0.243175  0  3.583534  0  0  -0.263708  0  3.608785  0  0  -0.33419  -0.229024  0  3.565898  0
N  N87  1  0.30381589  0.03981632  0.62383682  1  0  -0.327376  0  3.328273  0  -1.270347  0  -0.243273  0  3.583586  0  0  -0.263808  0  3.608838  0  0  -0.334279  -0.229117  0  3.565935  0
N  N88  1  0.74789424  0.77904709  0.15875198  1  0  -0.43442  0  3.324846  0  -1.29201  0  -0.379483  0  3.561396  0  0  -0.401238  0  3.571407  0  0  -0.388794  -0.364582  0  3.554192  0
N  N89  1  0.25210434  0.22095266  0.84124746  1  0  -0.434501  0  3.324829  0  -1.291987  0  -0.379567  0  3.561392  0  0  -0.401322  0  3.571401  0  0  -0.38885  -0.364675  0  3.554188  0
N  N90  1  0.53270151  0.29500277  0.12912593  1  0  -0.434909  0  3.361619  0  -1.286809  0  -0.378069  0  3.592247  0  0  -0.400935  0  3.604399  0  0  -0.39259  -0.3625  0  3.583879  0
N  N91  1  0.46729704  0.70499798  0.87087341  1  0  -0.434862  0  3.361705  0  -1.286824  0  -0.378101  0  3.592253  0  0  -0.400967  0  3.604406  0  0  -0.392583  -0.362538  0  3.58389  0
N  N92  1  0.36317517  0.07206856  0.33812583  1  0  -0.333722  0  3.2787  0  -1.285436  0  -0.258249  0  3.538796  0  0  -0.276081  0  3.559625  0  0  -0.337273  -0.245808  0  3.524179  0
N  N93  1  0.63682337  0.92793220  0.66187276  1  0  -0.333797  0  3.278728  0  -1.285449  0  -0.258328  0  3.538833  0  0  -0.276161  0  3.559659  0  0  -0.337261  -0.245883  0  3.524209  0
N  N94  1  0.93017283  0.45240788  0.71619685  1  0  -0.441611  0  3.360492  0  -1.319518  0  -0.384541  0  3.590083  0  0  -0.407548  0  3.601394  0  0  -0.394215  -0.368778  0  3.582211  0
N  N95  1  0.06983037  0.54759382  0.28380230  1  0  -0.441602  0  3.360426  0  -1.319529  0  -0.384566  0  3.589988  0  0  -0.407579  0  3.601302  0  0  -0.394214  -0.368801  0  3.582127  0
N  N96  1  0.25370234  0.42009855  0.53344535  1  0  -0.323864  0  3.375163  0  -1.289007  0  -0.238036  0  3.634342  0  0  -0.259114  0  3.658398  0  0  -0.340461  -0.223535  0  3.617685  0
N  N97  1  0.74629858  0.57990117  0.46655406  1  0  -0.323899  0  3.375115  0  -1.289293  0  -0.238055  0  3.634258  0  0  -0.259141  0  3.658335  0  0  -0.340459  -0.223545  0  3.617586  0
Cl  Cl98  1  0.39910998  0.75722398  0.50022308  1  0  -0.562475  0  1.046181  0  -0.671356  0  -0.498384  0  1.343971  0  0  -0.515122  0  1.320977  0  0  -0.274652  -0.488374  0  1.360839  0
Cl  Cl99  1  0.60088744  0.24277677  0.49977928  1  0  -0.562473  0  1.046164  0  -0.671369  0  -0.498381  0  1.343958  0  0  -0.51512  0  1.320965  0  0  -0.274662  -0.488369  0  1.360824  0
Cl  Cl100  1  0.45621051  0.53803058  0.29655840  1  0  -0.635852  0  0.758973  0  -0.732785  0  -0.583302  0  1.000938  0  0  -0.598226  0  0.981924  0  0  -0.34437  -0.572312  0  1.013537  0
Cl  Cl101  1  0.54378907  0.46197619  0.70344253  1  0  -0.635872  0  0.75897  0  -0.732794  0  -0.583291  0  1.000907  0  0  -0.598215  0  0.981891  0  0  -0.344364  -0.572302  0  1.013508  0
O  O102  1  0.97110030  0.81150233  0.06094813  1  0  -0.51878  0  1.913249  0  -1.156951  0  -0.475647  0  2.124278  0  0  -0.496204  0  2.119708  0  0  -0.281602  -0.461448  0  2.127031  0
O  O103  1  0.02889949  0.18849640  0.93905215  1  0  -0.518712  0  1.91324  0  -1.156543  0  -0.475586  0  2.12424  0  0  -0.496139  0  2.119673  0  0  -0.281556  -0.461391  0  2.12699  0
O  O104  1  0.57551101  0.22788796  0.97383591  1  0  -0.534884  0  1.921314  0  -1.155238  0  -0.493621  0  2.137919  0  0  -0.513836  0  2.133208  0  0  -0.288785  -0.479725  0  2.140455  0
O  O105  1  0.42448870  0.77211279  0.02616266  1  0  -0.534899  0  1.921329  0  -1.155147  0  -0.493633  0  2.137935  0  0  -0.513844  0  2.133226  0  0  -0.288791  -0.479735  0  2.140467  0
O  O106  1  0.08711704  0.60958358  0.76769450  1  0  -0.525837  0  1.93175  0  -1.16149  0  -0.480083  0  2.148112  0  0  -0.500435  0  2.143877  0  0  -0.282865  -0.466083  0  2.150508  0
O  O107  1  0.91288501  0.39041813  0.23230617  1  0  -0.52576  0  1.931794  0  -1.161432  0  -0.48002  0  2.148165  0  0  -0.500374  0  2.143931  0  0  -0.282822  -0.466017  0  2.150559  0
