# generated using pymatgen
data_NiH9C10NO5
_symmetry_space_group_name_H-M   'P 1'
_cell_length_a   9.67403974
_cell_length_b   10.46553245
_cell_length_c   23.57552653
_cell_angle_alpha   89.99995721
_cell_angle_beta   90.00013802
_cell_angle_gamma   89.99992839
_symmetry_Int_Tables_number   1
_chemical_formula_structural   NiH9C10NO5
_chemical_formula_sum   'Ni8 H72 C80 N8 O40'
_cell_volume   2386.88006267
_cell_formula_units_Z   8
loop_
 _symmetry_equiv_pos_site_id
 _symmetry_equiv_pos_as_xyz
  1  'x, y, z'
loop_
 _atom_site_type_symbol
 _atom_site_label
 _atom_site_symmetry_multiplicity
 _atom_site_fract_x
 _atom_site_fract_y
 _atom_site_fract_z
 _atom_site_occupancy
 _atom_site_pbe_bader_charge
 _atom_site_pbe_bader_spin_density
 _atom_site_pbe_cm5_charge
 _atom_site_pbe_ddec_charge
 _atom_site_pbe_ddec_spin_density
 _atom_site_pbe_ddec_sum_bond_order
 _atom_site_pbe_magmom
Ni  Ni0  1  0.38570435  0.49278245  0.78856192  1  1.206678  1.585302  0.64367  0.841984  1.787427  2.410692  1.573
Ni  Ni1  1  0.35722721  0.00301481  0.71256708  1  1.202796  1.579055  0.639961  0.838814  1.777347  2.380348  1.566
Ni  Ni2  1  0.61429588  0.49278185  0.21143728  1  1.206701  1.585307  0.643688  0.841994  1.787433  2.410725  1.573
Ni  Ni3  1  0.64277265  0.00301500  0.28743313  1  1.202893  1.579055  0.63996  0.838837  1.777349  2.380327  1.566
Ni  Ni4  1  0.88570516  0.50721723  0.71143812  1  1.206651  1.585305  0.643682  0.842046  1.787435  2.410797  1.573
Ni  Ni5  1  0.85722780  0.99698491  0.78743463  1  1.202959  1.579035  0.640032  0.838849  1.777325  2.379929  1.566
Ni  Ni6  1  0.11429505  0.50721612  0.28856150  1  1.206647  1.585302  0.643655  0.84199  1.787432  2.410809  1.573
Ni  Ni7  1  0.14277278  0.99698389  0.21256568  1  1.202901  1.579036  0.64003  0.838891  1.777326  2.379839  1.566
H  H8  1  0.24844281  0.40780752  0.64216175  1  0.064199  0.002942  0.108908  0.068125  0.00136  0.98561  0.002
H  H9  1  0.19736710  0.52348339  0.72420695  1  0.645765  -0.000411  0.299422  0.34017  -0.000453  1.00833  0.0
H  H10  1  0.45540583  0.52838514  0.61747479  1  0.047877  -0.00044  0.105627  0.12593  -0.000438  0.995222  0.0
H  H11  1  0.49599705  0.36397781  0.61918848  1  0.056039  0.000138  0.109202  0.132748  4.1e-05  0.971996  0.0
H  H12  1  0.42832304  0.08069821  0.86863064  1  0.055315  0.002925  0.104362  0.059289  0.001405  0.979738  0.002
H  H13  1  0.31534720  0.16144531  0.78972544  1  0.622815  0.000238  0.298257  0.339871  0.000394  0.992534  0.0
H  H14  1  0.29189862  0.87777097  0.86583305  1  0.102086  0.000409  0.10415  0.128922  9.8e-05  0.981817  0.0
H  H15  1  0.47192274  0.85455178  0.87767338  1  0.042536  0.00021  0.102325  0.124239  7.1e-05  0.978351  0.0
H  H16  1  0.46833606  0.60216614  0.90071172  1  0.138801  0.001956  0.119457  0.095902  0.000772  1.01408  0.002
H  H17  1  0.61999687  0.53620087  0.98243639  1  0.079798  0.000906  0.10575  0.109949  0.000444  1.006112  0.0
H  H18  1  0.68595379  0.17815606  0.89389042  1  0.137888  0.001059  0.109986  0.124732  0.000536  1.039897  0.0
H  H19  1  0.54610086  0.26528794  0.81613852  1  0.126167  0.001898  0.124619  0.097744  0.000581  1.017801  0.001
H  H20  1  0.76437440  0.38127779  0.02765357  1  0.049387  7.2e-05  0.105053  0.106386  5.7e-05  1.002101  0.0
H  H21  1  0.75626390  0.11081776  0.97579829  1  0.050189  0.000107  0.107173  0.107641  9.3e-05  0.99619  0.0
H  H22  1  0.02122561  0.87793612  0.10984047  1  0.131865  0.00213  0.116226  0.088611  0.0008  1.020351  0.002
H  H23  1  0.86616604  0.94461267  0.02961743  1  0.064752  0.001126  0.105338  0.108084  0.00054  0.999632  0.0
H  H24  1  0.88837867  0.32932522  0.09591977  1  0.065288  0.000979  0.104409  0.109968  0.000526  1.038949  0.0
H  H25  1  0.04660238  0.24671351  0.17066298  1  0.167708  0.001833  0.123309  0.106751  0.000669  1.024282  0.002
H  H26  1  0.75155547  0.40780747  0.35783706  1  0.06416  0.002943  0.108909  0.068091  0.00136  0.985587  0.002
H  H27  1  0.80263309  0.52348342  0.27579224  1  0.645767  -0.000411  0.299423  0.340188  -0.000452  1.00828  0.0
H  H28  1  0.54459332  0.52838528  0.38252483  1  0.0479  -0.000441  0.105635  0.125964  -0.000438  0.995182  0.0
H  H29  1  0.50400232  0.36397800  0.38081162  1  0.056033  0.000138  0.109202  0.132763  4.1e-05  0.971992  0.0
H  H30  1  0.57167774  0.08069875  0.13136913  1  0.055272  0.002925  0.10435  0.059274  0.001406  0.979741  0.002
H  H31  1  0.68465347  0.16144463  0.21027472  1  0.622823  0.000238  0.298234  0.3398  0.000394  0.992639  0.0
H  H32  1  0.70810212  0.87777135  0.13416645  1  0.102261  0.000409  0.104168  0.12896  9.8e-05  0.981786  0.0
H  H33  1  0.52807803  0.85455143  0.12232697  1  0.042547  0.00021  0.102327  0.124238  7.1e-05  0.97832  0.0
H  H34  1  0.53166402  0.60216582  0.09928872  1  0.138823  0.001956  0.119458  0.095872  0.000772  1.014021  0.002
H  H35  1  0.38000433  0.53620182  0.01756365  1  0.08021  0.000906  0.105743  0.109966  0.000444  1.006072  0.0
H  H36  1  0.31404686  0.17815502  0.10610931  1  0.137872  0.001059  0.109995  0.124738  0.000536  1.039866  0.0
H  H37  1  0.45389864  0.26528661  0.18386119  1  0.126151  0.001897  0.124614  0.097757  0.000581  1.017811  0.001
H  H38  1  0.23562495  0.38127922  0.97234652  1  0.049399  7.2e-05  0.105009  0.10632  5.7e-05  1.002153  0.0
H  H39  1  0.24373685  0.11081885  0.02420232  1  0.050179  0.000107  0.107177  0.107665  9.3e-05  0.996172  0.0
H  H40  1  0.97877513  0.87793777  0.89015946  1  0.131894  0.00213  0.116236  0.088596  0.0008  1.020398  0.002
H  H41  1  0.13383462  0.94461325  0.97038290  1  0.064743  0.001126  0.105322  0.108073  0.00054  0.999656  0.0
H  H42  1  0.11161661  0.32932690  0.90408288  1  0.065283  0.000979  0.104413  0.109915  0.000526  1.038982  0.0
H  H43  1  0.95339715  0.24671625  0.82933758  1  0.167709  0.001833  0.123304  0.106734  0.000669  1.024311  0.002
H  H44  1  0.74844540  0.59219423  0.85783732  1  0.064151  0.002941  0.108892  0.068057  0.001359  0.985594  0.002
H  H45  1  0.69736729  0.47651651  0.77579291  1  0.64574  -0.000411  0.29943  0.340188  -0.000453  1.008279  0.0
H  H46  1  0.95540666  0.47161446  0.88252533  1  0.047872  -0.000441  0.105629  0.125953  -0.000438  0.995191  0.0
H  H47  1  0.99599869  0.63602175  0.88081168  1  0.056018  0.000138  0.109196  0.132759  4.1e-05  0.971988  0.0
H  H48  1  0.92832283  0.91930237  0.63136987  1  0.055382  0.002927  0.104395  0.059366  0.001406  0.979705  0.002
H  H49  1  0.81534549  0.83855541  0.71027454  1  0.622772  0.000239  0.298236  0.339773  0.000395  0.992669  0.0
H  H50  1  0.79189743  0.12222786  0.63416733  1  0.102296  0.000409  0.104181  0.128979  9.8e-05  0.981778  0.0
H  H51  1  0.97192145  0.14544971  0.62232802  1  0.042545  0.000211  0.102322  0.124265  7.1e-05  0.978305  0.0
H  H52  1  0.96833636  0.39783632  0.59928883  1  0.138852  0.001956  0.11944  0.095856  0.000772  1.014032  0.002
H  H53  1  0.11999451  0.46380007  0.51756382  1  0.079834  0.000906  0.105762  0.110002  0.000444  1.00606  0.0
H  H54  1  0.18595456  0.82184577  0.60610901  1  0.137871  0.001059  0.109979  0.124727  0.000536  1.039896  0.0
H  H55  1  0.04610221  0.73471596  0.68386204  1  0.126102  0.001897  0.124586  0.097758  0.000581  1.0178  0.001
H  H56  1  0.26437346  0.61872096  0.47234664  1  0.049383  7.2e-05  0.105009  0.106323  5.7e-05  1.00214  0.0
H  H57  1  0.25626307  0.88918207  0.52420163  1  0.050193  0.000107  0.107176  0.107659  9.3e-05  0.99618  0.0
H  H58  1  0.52122385  0.12206292  0.39015907  1  0.131885  0.00213  0.116228  0.088614  0.0008  1.020375  0.002
H  H59  1  0.36616482  0.05538692  0.47038203  1  0.064752  0.001126  0.105337  0.108074  0.000541  0.999682  0.0
H  H60  1  0.38837933  0.67067434  0.40408013  1  0.065269  0.00098  0.104415  0.109983  0.000526  1.038937  0.0
H  H61  1  0.54660148  0.75328645  0.32933659  1  0.167697  0.001833  0.12328  0.106729  0.000669  1.024328  0.002
H  H62  1  0.25155573  0.59219416  0.14216270  1  0.064127  0.002941  0.108912  0.068118  0.001359  0.98562  0.002
H  H63  1  0.30263296  0.47651433  0.22420715  1  0.645766  -0.000411  0.299427  0.340176  -0.000453  1.008305  0.0
H  H64  1  0.04459463  0.47161468  0.11747431  1  0.047859  -0.000441  0.105635  0.125994  -0.000438  0.995131  0.0
H  H65  1  0.00400238  0.63602200  0.11918833  1  0.055996  0.000138  0.109197  0.132758  4.1e-05  0.972  0.0
H  H66  1  0.07167683  0.91930309  0.36863046  1  0.055363  0.002927  0.104371  0.059331  0.001406  0.979736  0.002
H  H67  1  0.18465220  0.83855421  0.28972540  1  0.622768  0.000239  0.298235  0.33977  0.000395  0.992697  0.0
H  H68  1  0.20810123  0.12222842  0.36583242  1  0.1023  0.000409  0.104153  0.128924  9.9e-05  0.981824  0.0
H  H69  1  0.02807822  0.14544950  0.37767257  1  0.042521  0.000211  0.102342  0.12425  7.1e-05  0.978284  0.0
H  H70  1  0.03166503  0.39783511  0.40071125  1  0.13883  0.001956  0.119456  0.095875  0.000772  1.013996  0.002
H  H71  1  0.88000472  0.46379871  0.48243582  1  0.079822  0.000906  0.105751  0.109986  0.000444  1.006085  0.0
H  H72  1  0.81404522  0.82184558  0.39389094  1  0.137875  0.001059  0.109981  0.124711  0.000536  1.039885  0.0
H  H73  1  0.95389769  0.73471383  0.31613793  1  0.126122  0.001897  0.124589  0.097749  0.000581  1.017789  0.001
H  H74  1  0.73562453  0.61872064  0.52765338  1  0.049402  7.2e-05  0.105023  0.106347  5.7e-05  1.00215  0.0
H  H75  1  0.74373766  0.88918088  0.47579829  1  0.050191  0.000107  0.107172  0.107644  9.3e-05  0.99619  0.0
H  H76  1  0.47877584  0.12206276  0.60984025  1  0.131889  0.00213  0.116233  0.088622  0.0008  1.020361  0.002
H  H77  1  0.63383394  0.05538672  0.52961732  1  0.064751  0.001126  0.105335  0.108062  0.000541  0.999652  0.0
H  H78  1  0.61162066  0.67067405  0.59591944  1  0.065259  0.00098  0.10442  0.109964  0.000526  1.038972  0.0
H  H79  1  0.45339943  0.75328622  0.67066296  1  0.167689  0.001833  0.123287  0.10673  0.000669  1.024364  0.002
C  C80  1  0.33264162  0.29457859  0.70888524  1  1.584668  -0.000286  0.214558  0.55844  -0.000923  4.124291  -0.001
C  C81  1  0.32874957  0.41965682  0.67481174  1  0.4676  0.009034  -0.006845  0.105504  0.005587  3.887154  0.006
C  C82  1  0.46688411  0.44575768  0.64589114  1  -0.011569  0.006266  -0.158466  -0.34435  0.003627  3.902977  0.005
C  C83  1  0.58711733  0.47162726  0.68613674  1  1.570259  -0.000707  0.228629  0.662217  -0.001235  4.049495  -0.001
C  C84  1  0.55737753  0.03454192  0.79652543  1  1.588414  -0.001286  0.199368  0.533708  -0.001968  4.18335  -0.003
C  C85  1  0.42063745  0.02284166  0.82969450  1  0.439637  0.009686  -0.010202  0.096  0.005797  3.905872  0.006
C  C86  1  0.39492894  0.88414519  0.84612198  1  -0.035957  0.008697  -0.163358  -0.343496  0.00485  3.912964  0.007
C  C87  1  0.39673369  0.78739812  0.79752499  1  1.549993  5.3e-05  0.219728  0.660774  -0.000134  4.087994  0.0
C  C88  1  0.51816743  0.50889899  0.90241480  1  0.487319  -0.005711  0.042506  0.08433  -0.00647  3.962053  -0.004
C  C89  1  0.60214801  0.47116361  0.94710059  1  -0.102932  0.004992  -0.088698  -0.192378  0.002607  3.976962  0.004
C  C90  1  0.66173748  0.34843785  0.94755323  1  0.009234  -0.007924  0.003121  0.143705  -0.008805  4.038276  -0.005
C  C91  1  0.63989232  0.27237966  0.89918189  1  -0.065933  0.005709  -0.079725  -0.169192  0.003174  3.90037  0.004
C  C92  1  0.55953587  0.31918482  0.85519724  1  0.496145  -0.004345  0.049166  0.099294  -0.004934  3.929242  -0.003
C  C93  1  0.74110883  0.30690524  0.99648071  1  -0.030911  -0.005277  -0.083116  -0.1238  -0.005964  3.961585  -0.003
C  C94  1  0.78332415  0.18556296  0.00627508  1  -0.021143  -0.004405  -0.079124  -0.115134  -0.005064  3.959491  -0.002
C  C95  1  0.99014650  0.97722148  0.10398825  1  0.450881  -0.006116  0.047423  0.089675  -0.006942  3.949633  -0.004
C  C96  1  0.90372190  0.01510520  0.06003219  1  -0.030327  0.005078  -0.086083  -0.188283  0.002655  3.974454  0.004
C  C97  1  0.86622144  0.14436669  0.05432623  1  -0.060729  -0.008601  0.002726  0.139997  -0.009492  4.041574  -0.005
C  C98  1  0.91700690  0.22866525  0.09585321  1  -0.00634  0.004846  -0.081871  -0.167163  0.002619  3.916822  0.004
C  C99  1  0.00414126  0.18407078  0.13803591  1  0.484347  -0.00447  0.050469  0.095635  -0.00519  3.908793  -0.003
C  C100  1  0.66735785  0.29457683  0.29111446  1  1.584681  -0.000285  0.214657  0.558601  -0.000923  4.124097  -0.001
C  C101  1  0.67124972  0.41965692  0.32518748  1  0.467691  0.009033  -0.006849  0.105595  0.005587  3.886963  0.006
C  C102  1  0.53311412  0.44575693  0.35410808  1  -0.011594  0.006265  -0.15848  -0.344452  0.003627  3.902948  0.005
C  C103  1  0.41288086  0.47162672  0.31386332  1  1.570356  -0.000707  0.228636  0.662247  -0.001234  4.049504  -0.001
C  C104  1  0.44262022  0.03454153  0.20347266  1  1.588229  -0.001288  0.199357  0.533713  -0.001967  4.183502  -0.003
C  C105  1  0.57936341  0.02284117  0.17030528  1  0.439679  0.009686  -0.010151  0.096104  0.005797  3.905824  0.006
C  C106  1  0.60507283  0.88414469  0.15387795  1  -0.036047  0.008698  -0.163394  -0.343598  0.00485  3.912975  0.007
C  C107  1  0.60326821  0.78739659  0.20247454  1  1.549866  5.2e-05  0.219717  0.660778  -0.000134  4.08799  0.0
C  C108  1  0.48183174  0.50889587  0.09758525  1  0.458943  -0.005665  0.042529  0.08445  -0.006471  3.962313  -0.004
C  C109  1  0.39785328  0.47116639  0.05290074  1  -0.102717  0.004992  -0.088729  -0.192478  0.002607  3.977122  0.004
C  C110  1  0.33826088  0.34843688  0.05244687  1  0.009284  -0.007928  0.003048  0.143609  -0.008809  4.038286  -0.005
C  C111  1  0.36010924  0.27237954  0.10081867  1  -0.065979  0.005708  -0.079711  -0.16913  0.003173  3.9004  0.004
C  C112  1  0.44046046  0.31917880  0.14480244  1  0.496057  -0.004346  0.04913  0.09919  -0.004934  3.929199  -0.003
C  C113  1  0.25889061  0.30690540  0.00351983  1  -0.030321  -0.005276  -0.083062  -0.123687  -0.005963  3.961786  -0.003
C  C114  1  0.21667546  0.18556437  0.99372634  1  -0.021746  -0.004409  -0.079151  -0.115221  -0.005068  3.959616  -0.002
C  C115  1  0.00985411  0.97722329  0.89601207  1  0.450896  -0.006115  0.047456  0.089743  -0.006941  3.949643  -0.004
C  C116  1  0.09627794  0.01510493  0.93996845  1  -0.030803  0.005077  -0.086078  -0.18831  0.002654  3.974387  0.004
C  C117  1  0.13377616  0.14437019  0.94567436  1  -0.06091  -0.008602  0.002764  0.140086  -0.009493  4.041655  -0.005
C  C118  1  0.08298955  0.22866505  0.90414821  1  -0.006223  0.004845  -0.081925  -0.167209  0.002618  3.917097  0.004
C  C119  1  0.99585939  0.18407342  0.86196552  1  0.484332  -0.00447  0.050483  0.095663  -0.00519  3.908929  -0.003
C  C120  1  0.83264366  0.70543262  0.79111942  1  1.585047  -0.000283  0.214558  0.558353  -0.00092  4.124311  -0.001
C  C121  1  0.82875199  0.58034293  0.82518740  1  0.46763  0.009033  -0.00685  0.10565  0.005586  3.886868  0.006
C  C122  1  0.96688673  0.55424190  0.85410814  1  -0.011593  0.006265  -0.158493  -0.344504  0.003627  3.902937  0.005
C  C123  1  0.08712179  0.52837181  0.81386598  1  1.570331  -0.000705  0.228712  0.662369  -0.001233  4.049342  -0.001
C  C124  1  0.05736111  0.96545431  0.70348660  1  1.588472  -0.001287  0.199359  0.533569  -0.001969  4.18359  -0.003
C  C125  1  0.92063635  0.97715893  0.67030642  1  0.439805  0.009688  -0.010269  0.095914  0.005798  3.905961  0.006
C  C126  1  0.89492684  0.11585448  0.65387935  1  -0.03638  0.0087  -0.163342  -0.343545  0.004852  3.912955  0.007
C  C127  1  0.89672968  0.21259677  0.70247973  1  1.55098  4.9e-05  0.219765  0.660728  -0.000134  4.088135  0.0
C  C128  1  0.01816963  0.49110493  0.59758531  1  0.458905  -0.005664  0.042511  0.084357  -0.006469  3.962213  -0.004
C  C129  1  0.10214680  0.52883545  0.55290129  1  -0.102942  0.004991  -0.088745  -0.192465  0.002606  3.977141  0.004
C  C130  1  0.16174023  0.65156304  0.55244702  1  0.009258  -0.007927  0.00304  0.143594  -0.008808  4.038317  -0.005
C  C131  1  0.13989319  0.72762221  0.60081877  1  -0.066008  0.005708  -0.079709  -0.169148  0.003173  3.900448  0.004
C  C132  1  0.05954016  0.68082097  0.64480248  1  0.496106  -0.004345  0.04914  0.09917  -0.004933  3.929321  -0.003
C  C133  1  0.24110918  0.69309461  0.50352004  1  -0.030912  -0.005281  -0.083068  -0.123703  -0.005968  3.961714  -0.003
C  C134  1  0.28332411  0.81443672  0.49372514  1  -0.021132  -0.004408  -0.079124  -0.115172  -0.005067  3.95953  -0.002
C  C135  1  0.49014592  0.02277892  0.39601175  1  0.45052  -0.006117  0.047437  0.089705  -0.006944  3.949543  -0.004
C  C136  1  0.40372028  0.98489530  0.43996773  1  -0.02997  0.005078  -0.086094  -0.188281  0.002655  3.97442  0.004
C  C137  1  0.36622209  0.85563194  0.44567365  1  -0.060729  -0.008604  0.002729  0.140002  -0.009496  4.041606  -0.005
C  C138  1  0.41700743  0.77133428  0.40414715  1  -0.006386  0.004846  -0.081879  -0.167199  0.002618  3.916909  0.004
C  C139  1  0.50413944  0.81592827  0.36196403  1  0.48436  -0.004471  0.050466  0.095643  -0.005191  3.908846  -0.003
C  C140  1  0.16735732  0.70542967  0.20888098  1  1.585004  -0.000283  0.21458  0.558454  -0.000921  4.124226  -0.001
C  C141  1  0.17124916  0.58034194  0.17481220  1  0.467671  0.009032  -0.006885  0.105473  0.005586  3.887096  0.006
C  C142  1  0.03311549  0.55424208  0.14589147  1  -0.011583  0.006266  -0.158495  -0.344507  0.003627  3.903026  0.005
C  C143  1  0.91287736  0.52837090  0.18613364  1  1.570271  -0.000704  0.228683  0.662329  -0.001232  4.049383  -0.001
C  C144  1  0.94263745  0.96545415  0.29651373  1  1.588744  -0.001287  0.199407  0.53361  -0.001969  4.183533  -0.003
C  C145  1  0.07936322  0.97715875  0.32969432  1  0.439753  0.009687  -0.010241  0.095934  0.005798  3.905897  0.006
C  C146  1  0.10507287  0.11585520  0.34612125  1  -0.036378  0.008701  -0.163385  -0.343508  0.004853  3.912858  0.007
C  C147  1  0.10326886  0.21259757  0.29751999  1  1.550955  4.9e-05  0.219764  0.660819  -0.000134  4.088108  0.0
C  C148  1  0.98183266  0.49110454  0.40241432  1  0.458925  -0.005663  0.04246  0.08432  -0.006468  3.962214  -0.004
C  C149  1  0.89785234  0.52883603  0.44709960  1  -0.102284  0.004991  -0.08869  -0.192457  0.002607  3.977087  0.004
C  C150  1  0.83825978  0.65156274  0.44755213  1  0.009246  -0.007924  0.003052  0.143693  -0.008805  4.038289  -0.005
C  C151  1  0.86010672  0.72762005  0.39918163  1  -0.065976  0.005708  -0.079696  -0.169119  0.003173  3.900375  0.004
C  C152  1  0.94046085  0.68081975  0.35519708  1  0.496105  -0.004344  0.049105  0.099101  -0.004932  3.929271  -0.003
C  C153  1  0.75888975  0.69309431  0.49647952  1  -0.030937  -0.00528  -0.083079  -0.123759  -0.005967  3.961653  -0.003
C  C154  1  0.71667568  0.81443742  0.50627481  1  -0.021133  -0.004405  -0.079133  -0.115143  -0.005064  3.959447  -0.002
C  C155  1  0.50985495  0.02277874  0.60398846  1  0.450528  -0.006116  0.047434  0.089685  -0.006943  3.949557  -0.004
C  C156  1  0.59627928  0.98489413  0.56003174  1  -0.03046  0.005078  -0.086099  -0.188247  0.002655  3.974419  0.004
C  C157  1  0.63377868  0.85563265  0.55432671  1  -0.060754  -0.008603  0.002729  0.139949  -0.009494  4.041646  -0.005
C  C158  1  0.58299553  0.77133402  0.59585281  1  -0.00636  0.004847  -0.081883  -0.167153  0.002619  3.916862  0.004
C  C159  1  0.49585932  0.81592804  0.63803676  1  0.484359  -0.004471  0.050482  0.095673  -0.005192  3.908755  -0.003
N  N160  1  0.49599564  0.43380110  0.85684678  1  -1.212067  0.069231  -0.332789  -0.227576  0.039942  3.567755  0.061
N  N161  1  0.04196010  0.06014682  0.14209567  1  -1.187222  0.071787  -0.319897  -0.204341  0.041363  3.54285  0.064
N  N162  1  0.50400674  0.43380360  0.14315329  1  -1.183614  0.069184  -0.33271  -0.22749  0.039942  3.567594  0.061
N  N163  1  0.95803865  0.06014856  0.85790453  1  -1.187183  0.071786  -0.319858  -0.204267  0.041362  3.542824  0.064
N  N164  1  0.99599493  0.56619846  0.64315464  1  -1.183592  0.069195  -0.332672  -0.22742  0.039948  3.567619  0.061
N  N165  1  0.54196015  0.93985219  0.35790389  1  -1.187147  0.071798  -0.319875  -0.204278  0.041369  3.542755  0.064
N  N166  1  0.00400520  0.56619736  0.35684623  1  -1.183618  0.069195  -0.33266  -0.227363  0.039948  3.567643  0.061
N  N167  1  0.45804051  0.93985295  0.64209602  1  -1.187133  0.071799  -0.319881  -0.204289  0.04137  3.542775  0.064
O  O168  1  0.33118839  0.30475289  0.76319707  1  -1.163481  0.057858  -0.299372  -0.533227  0.031707  2.348886  0.053
O  O169  1  0.33665957  0.19231243  0.68081420  1  -1.153752  0.063559  -0.297667  -0.520638  0.03559  2.332282  0.058
O  O170  1  0.29684876  0.52754525  0.70961433  1  -1.12646  0.063238  -0.384589  -0.485807  0.035747  2.456278  0.057
O  O171  1  0.56591435  0.47137784  0.73991453  1  -1.162983  0.05331  -0.297077  -0.542076  0.029854  2.401655  0.049
O  O172  1  0.70421105  0.49016521  0.66369615  1  -1.137984  0.075509  -0.3071  -0.545609  0.04187  2.28622  0.069
O  O173  1  0.54862198  0.05047618  0.74344410  1  -1.138062  0.075467  -0.304413  -0.515143  0.041132  2.347874  0.069
O  O174  1  0.66856385  0.02550168  0.82495921  1  -1.152034  0.072589  -0.313271  -0.538871  0.040304  2.363655  0.066
O  O175  1  0.30656709  0.06649266  0.79614440  1  -1.094706  0.061149  -0.381134  -0.469228  0.034546  2.423968  0.054
O  O176  1  0.36777561  0.82016192  0.74721050  1  -1.137806  0.07142  -0.2971  -0.52621  0.039236  2.316038  0.065
O  O177  1  0.42617756  0.67400109  0.81333040  1  -1.154225  0.077206  -0.323012  -0.572694  0.042647  2.374397  0.07
O  O178  1  0.66881209  0.30475123  0.23680263  1  -1.163502  0.05786  -0.299419  -0.533296  0.031708  2.348834  0.053
O  O179  1  0.66333900  0.19231254  0.31918553  1  -1.153764  0.063558  -0.297721  -0.520736  0.035589  2.332292  0.058
O  O180  1  0.70314935  0.52754441  0.29038487  1  -1.126453  0.063239  -0.384581  -0.485836  0.035748  2.456273  0.057
O  O181  1  0.43408591  0.47137736  0.26008468  1  -1.162982  0.053314  -0.297102  -0.54211  0.029856  2.401611  0.049
O  O182  1  0.29578919  0.49016381  0.33630305  1  -1.138063  0.075505  -0.307076  -0.545574  0.041868  2.286315  0.069
O  O183  1  0.45137885  0.05047856  0.25655610  1  -1.137722  0.07548  -0.304444  -0.515195  0.041138  2.347819  0.069
O  O184  1  0.33144011  0.02550051  0.17504143  1  -1.152105  0.072577  -0.313254  -0.53888  0.040297  2.363889  0.066
O  O185  1  0.69343372  0.06649103  0.20385495  1  -1.094717  0.06115  -0.381144  -0.469203  0.034547  2.424034  0.054
O  O186  1  0.63222521  0.82016123  0.25278944  1  -1.137882  0.071424  -0.297071  -0.526185  0.039237  2.316011  0.065
O  O187  1  0.57382552  0.67400153  0.18666917  1  -1.154262  0.077204  -0.323013  -0.572691  0.042646  2.374458  0.07
O  O188  1  0.83118703  0.69524494  0.73679826  1  -1.163357  0.05787  -0.29939  -0.533172  0.031714  2.348291  0.053
O  O189  1  0.83665958  0.80767584  0.81918156  1  -1.154184  0.063514  -0.297686  -0.52064  0.035564  2.332785  0.058
O  O190  1  0.79684905  0.47245358  0.79038478  1  -1.126404  0.063223  -0.384569  -0.485844  0.035739  2.456191  0.057
O  O191  1  0.06591436  0.52862030  0.76008350  1  -1.162903  0.053308  -0.297186  -0.542237  0.029853  2.401291  0.049
O  O192  1  0.20420946  0.50983468  0.83630287  1  -1.138134  0.075488  -0.3071  -0.545594  0.041858  2.286567  0.069
O  O193  1  0.04862036  0.94952293  0.75655094  1  -1.138552  0.075431  -0.304258  -0.514856  0.041111  2.348905  0.069
O  O194  1  0.16857413  0.97450111  0.67504020  1  -1.151636  0.072651  -0.313387  -0.538983  0.040338  2.362755  0.066
O  O195  1  0.80656624  0.93350806  0.70385557  1  -1.094692  0.061169  -0.381109  -0.469131  0.034556  2.424089  0.054
O  O196  1  0.86777711  0.17984160  0.75278783  1  -1.13833  0.071441  -0.29706  -0.526146  0.03924  2.316476  0.065
O  O197  1  0.92617537  0.32600237  0.68666969  1  -1.154607  0.077234  -0.323082  -0.572674  0.042662  2.374108  0.07
O  O198  1  0.16881292  0.69524477  0.26320130  1  -1.163355  0.057867  -0.299371  -0.533164  0.031712  2.348352  0.053
O  O199  1  0.16334023  0.80767677  0.18081754  1  -1.154158  0.06352  -0.297693  -0.520685  0.035567  2.332668  0.058
O  O200  1  0.20315121  0.47245154  0.20961485  1  -1.126458  0.063224  -0.384595  -0.485831  0.03574  2.45624  0.057
O  O201  1  0.93408685  0.52862119  0.23991654  1  -1.162817  0.053307  -0.297162  -0.542205  0.029853  2.401268  0.049
O  O202  1  0.79579281  0.50983395  0.16369676  1  -1.138146  0.075484  -0.307076  -0.545575  0.041856  2.286619  0.069
O  O203  1  0.95137925  0.94952284  0.24344981  1  -1.138716  0.075434  -0.304285  -0.51484  0.041112  2.348842  0.069
O  O204  1  0.83142648  0.97450103  0.32496012  1  -1.151667  0.072647  -0.31339  -0.538997  0.040336  2.362775  0.066
O  O205  1  0.19343339  0.93350780  0.29614518  1  -1.094694  0.061169  -0.381113  -0.469146  0.034556  2.424138  0.054
O  O206  1  0.13222561  0.17984054  0.24721275  1  -1.138322  0.071439  -0.297048  -0.526183  0.039239  2.316453  0.065
O  O207  1  0.07382095  0.32600031  0.31332957  1  -1.154616  0.077232  -0.323027  -0.572677  0.042661  2.374099  0.07
