# generated using pymatgen
data_CuH10C11SN2(ClO)2
_symmetry_space_group_name_H-M   'P 1'
_cell_length_a   7.72194971
_cell_length_b   12.60172230
_cell_length_c   13.46108892
_cell_angle_alpha   90.00473322
_cell_angle_beta   89.99980102
_cell_angle_gamma   99.60500734
_symmetry_Int_Tables_number   1
_chemical_formula_structural   CuH10C11SN2(ClO)2
_chemical_formula_sum   'Cu4 H40 C44 S4 N8 Cl8 O8'
_cell_volume   1291.53391146
_cell_formula_units_Z   4
loop_
 _symmetry_equiv_pos_site_id
 _symmetry_equiv_pos_as_xyz
  1  'x, y, z'
loop_
 _atom_site_type_symbol
 _atom_site_label
 _atom_site_symmetry_multiplicity
 _atom_site_fract_x
 _atom_site_fract_y
 _atom_site_fract_z
 _atom_site_occupancy
 _atom_site_pbe_bader_charge
 _atom_site_pbe_bader_spin_density
 _atom_site_pbe_cm5_charge
 _atom_site_pbe_ddec_charge
 _atom_site_pbe_ddec_spin_density
 _atom_site_pbe_ddec_sum_bond_order
 _atom_site_pbe_magmom
Cu  Cu0  1  0.32776909  0.45992878  0.78268444  1  0.954362  -0.506127  0.618211  0.683506  -0.674096  2.326257  -0.507
Cu  Cu1  1  0.17222263  0.04007368  0.28268059  1  0.954596  -0.506147  0.618307  0.683625  -0.674122  2.326529  -0.507
Cu  Cu2  1  0.67223077  0.54007017  0.21731390  1  0.954385  -0.506112  0.618195  0.683458  -0.674071  2.325968  -0.507
Cu  Cu3  1  0.82777449  0.95992931  0.71731553  1  0.95457  -0.50615  0.618274  0.683591  -0.674118  2.326037  -0.507
H  H4  1  0.47888738  0.36511932  0.61958163  1  0.147495  -0.002043  0.119835  0.104059  -0.000909  1.020596  -0.001
H  H5  1  0.02112194  0.13486352  0.11959284  1  0.147481  -0.00204  0.119857  0.104073  -0.000907  1.020871  -0.001
H  H6  1  0.52111940  0.63488121  0.38041225  1  0.147582  -0.002046  0.119834  0.104018  -0.000911  1.020341  -0.001
H  H7  1  0.97886864  0.86513466  0.88040327  1  0.147504  -0.002042  0.119889  0.104095  -0.000909  1.020762  -0.001
H  H8  1  0.72197324  0.41464307  0.49429031  1  0.1121  -0.000991  0.101384  0.107277  -0.000492  1.042622  -0.001
H  H9  1  0.77802617  0.08533573  0.99430840  1  0.111986  -0.000991  0.101347  0.107246  -0.000492  1.042709  -0.001
H  H10  1  0.27803765  0.58535826  0.50570654  1  0.112038  -0.00099  0.101379  0.107313  -0.000491  1.042702  -0.001
H  H11  1  0.22196318  0.91466729  0.00569068  1  0.112075  -0.000991  0.101362  0.107289  -0.000492  1.042672  -0.001
H  H12  1  0.89819306  0.59932145  0.49854879  1  0.124262  -0.000369  0.111068  0.114992  -0.000231  0.976848  0.0
H  H13  1  0.60179459  0.90065917  0.99854480  1  0.124444  -0.000368  0.111042  0.114968  -0.000231  0.976767  0.0
H  H14  1  0.10182688  0.40067984  0.50144510  1  0.124359  -0.000369  0.111042  0.114967  -0.000231  0.97695  0.0
H  H15  1  0.39819020  0.09934145  0.00144611  1  0.124563  -0.000369  0.111088  0.115094  -0.000231  0.97668  0.0
H  H16  1  0.83218095  0.72874305  0.62972898  1  0.178136  -0.001067  0.09512  0.122656  -0.000514  1.081961  -0.001
H  H17  1  0.66781732  0.77126627  0.12971403  1  0.178262  -0.001067  0.09514  0.122668  -0.000515  1.08201  -0.001
H  H18  1  0.16781224  0.27124143  0.37026936  1  0.178139  -0.001069  0.095201  0.122682  -0.000515  1.081703  -0.001
H  H19  1  0.33218382  0.22874637  0.87027985  1  0.178074  -0.001068  0.095142  0.12264  -0.000515  1.081949  -0.001
H  H20  1  0.30197026  0.75103359  0.71566919  1  0.114442  -0.00015  0.10547  0.155784  -0.000186  1.018155  0.0
H  H21  1  0.19803303  0.74896901  0.21568218  1  0.114315  -0.000151  0.105471  0.155809  -0.000186  1.018104  0.0
H  H22  1  0.69804086  0.24896854  0.28433435  1  0.114352  -0.000151  0.105464  0.155813  -0.000186  1.018074  0.0
H  H23  1  0.80196250  0.25102835  0.78431765  1  0.114253  -0.00015  0.10546  0.155788  -0.000186  1.01813  0.0
H  H24  1  0.44303645  0.86383250  0.77365237  1  0.154197  7.9e-05  0.108808  0.166465  0.000222  1.001931  0.0
H  H25  1  0.05694185  0.63619315  0.27365618  1  0.154263  7.8e-05  0.108796  0.166462  0.000222  1.002105  0.0
H  H26  1  0.55697666  0.13615835  0.22635266  1  0.154005  7.8e-05  0.108875  0.166542  0.000222  1.001805  0.0
H  H27  1  0.94304566  0.36381712  0.72634439  1  0.154303  7.8e-05  0.108836  0.166525  0.000222  1.001883  0.0
H  H28  1  0.26944239  0.75286637  0.54833142  1  0.106416  -0.002786  0.104137  0.124175  -0.00194  1.007618  -0.001
H  H29  1  0.23055669  0.74713565  0.04834420  1  0.106538  -0.002787  0.104075  0.124137  -0.001941  1.007416  -0.001
H  H30  1  0.73055634  0.24712856  0.45167807  1  0.106428  -0.002786  0.104127  0.124194  -0.00194  1.007668  -0.001
H  H31  1  0.76944925  0.25286650  0.95165860  1  0.106476  -0.002786  0.104083  0.124083  -0.00194  1.007531  -0.001
H  H32  1  0.36874808  0.82021254  0.37783657  1  0.125985  -0.000155  0.106046  0.112952  1e-06  1.000445  0.0
H  H33  1  0.13123033  0.67978385  0.87783997  1  0.126082  -0.000155  0.106029  0.112975  1e-06  1.000473  0.0
H  H34  1  0.63126297  0.17978476  0.62217886  1  0.126122  -0.000154  0.105977  0.112964  2e-06  1.000293  0.0
H  H35  1  0.86875485  0.32021355  0.12217026  1  0.126  -0.000155  0.106024  0.11296  1e-06  1.000336  0.0
H  H36  1  0.65858639  0.94443874  0.36301018  1  0.113215  -0.000948  0.099768  0.11339  -0.000459  1.016886  -0.001
H  H37  1  0.84139245  0.55555787  0.86299984  1  0.151636  -0.000913  0.099812  0.113563  -0.000459  1.016939  -0.001
H  H38  1  0.34141408  0.05555779  0.63698816  1  0.113429  -0.000948  0.099831  0.113482  -0.000458  1.017166  -0.001
H  H39  1  0.15860330  0.44444029  0.13699925  1  0.113691  -0.000948  0.099837  0.113577  -0.000459  1.016989  -0.001
H  H40  1  0.83428336  0.99368847  0.51466457  1  0.164408  -0.002345  0.108052  0.094206  -0.001134  1.036976  -0.001
H  H41  1  0.66570904  0.50630646  0.01465144  1  0.164313  -0.002347  0.108031  0.09415  -0.001135  1.036934  -0.001
H  H42  1  0.16572045  0.00631530  0.48533303  1  0.164407  -0.002343  0.108029  0.094131  -0.001133  1.037059  -0.001
H  H43  1  0.33428328  0.49369333  0.98534839  1  0.164328  -0.002345  0.10804  0.09412  -0.001134  1.037052  -0.001
C  C44  1  0.55837241  0.44504773  0.61737011  1  0.430628  0.002494  0.049738  0.092572  0.002417  3.897459  0.002
C  C45  1  0.94163397  0.05495582  0.11737057  1  0.430512  0.002492  0.049703  0.092562  0.002416  3.897888  0.002
C  C46  1  0.44163112  0.55493670  0.38261783  1  0.430785  0.002496  0.049856  0.092663  0.002419  3.896868  0.002
C  C47  1  0.05836328  0.94505683  0.88262182  1  0.430701  0.002495  0.049695  0.092484  0.002418  3.897705  0.002
C  C48  1  0.69443086  0.47265906  0.54951100  1  -0.037003  -0.007089  -0.07655  -0.110169  -0.004922  3.94363  -0.005
C  C49  1  0.80557457  0.02733032  0.04952149  1  -0.036745  -0.007089  -0.076523  -0.110203  -0.004922  3.943633  -0.005
C  C50  1  0.30556291  0.52733669  0.45048809  1  -0.03679  -0.007089  -0.076594  -0.110269  -0.004922  3.943665  -0.005
C  C51  1  0.19443060  0.97267828  0.95047611  1  -0.036988  -0.007088  -0.076524  -0.110238  -0.004921  3.943699  -0.005
C  C52  1  0.79227420  0.57584328  0.55159570  1  -0.000616  0.002556  -0.055217  0.010819  0.002266  3.899362  0.002
C  C53  1  0.70772234  0.92413966  0.05160363  1  -0.00056  0.002559  -0.055146  0.010878  0.002268  3.899011  0.002
C  C54  1  0.20773074  0.42416452  0.44840636  1  -0.000555  0.002553  -0.055244  0.010754  0.002263  3.899625  0.002
C  C55  1  0.29227144  0.07585609  0.94839916  1  -0.000486  0.002556  -0.055201  0.010708  0.002265  3.89909  0.002
C  C56  1  0.75278302  0.64872849  0.62270722  1  0.033492  -0.006607  -0.0727  -0.110521  -0.005055  3.903961  -0.005
C  C57  1  0.74719734  0.85125851  0.12270052  1  0.032304  -0.006608  -0.072766  -0.110521  -0.005053  3.903984  -0.005
C  C58  1  0.24723402  0.35128087  0.37729335  1  0.03341  -0.006609  -0.072635  -0.110323  -0.005056  3.903475  -0.005
C  C59  1  0.25278046  0.14873569  0.87729782  1  0.033408  -0.006607  -0.072734  -0.110382  -0.005054  3.903726  -0.005
C  C60  1  0.61273803  0.61497672  0.68644830  1  0.344736  -0.000708  0.109364  0.056629  -0.000812  3.919745  0.0
C  C61  1  0.88724999  0.88501600  0.18644244  1  0.344684  -0.000707  0.109414  0.056827  -0.000812  3.919307  0.0
C  C62  1  0.38726630  0.38503349  0.31354930  1  0.344945  -0.000707  0.109313  0.056411  -0.000812  3.920251  0.0
C  C63  1  0.11273405  0.11497737  0.81355441  1  0.344426  -0.000707  0.109408  0.056679  -0.00081  3.919742  0.0
C  C64  1  0.43579363  0.79662216  0.72031234  1  -0.166562  -0.002989  -0.152193  -0.409042  -0.001996  3.853378  -0.002
C  C65  1  0.06420418  0.70338410  0.22032282  1  -0.166019  -0.002991  -0.152113  -0.408914  -0.001998  3.853491  -0.002
C  C66  1  0.56421299  0.20338240  0.27969417  1  -0.165705  -0.002988  -0.152212  -0.409123  -0.001996  3.853582  -0.002
C  C67  1  0.93579325  0.29661083  0.77967998  1  -0.165972  -0.002989  -0.152148  -0.408918  -0.001997  3.853288  -0.002
C  C68  1  0.50046074  0.83618014  0.61991480  1  0.499741  -0.001661  0.114205  0.274707  -0.001834  3.958195  -0.001
C  C69  1  0.99952391  0.66380820  0.11992430  1  0.500271  -0.001659  0.114052  0.274527  -0.001834  3.958353  -0.001
C  C70  1  0.49955319  0.16382278  0.38008875  1  0.499071  -0.001664  0.114142  0.274674  -0.001836  3.957872  -0.001
C  C71  1  0.00046081  0.33618758  0.88007775  1  0.499583  -0.001663  0.114043  0.274498  -0.001836  3.95826  -0.001
C  C72  1  0.39603333  0.80404380  0.53693895  1  0.00118  -0.007844  -0.082941  -0.169925  -0.005929  3.914792  -0.006
C  C73  1  0.10395178  0.69594515  0.03693688  1  0.000657  -0.00785  -0.082748  -0.169728  -0.005933  3.914364  -0.006
C  C74  1  0.60397969  0.19595590  0.46306385  1  0.001709  -0.007843  -0.082883  -0.169874  -0.005929  3.914826  -0.006
C  C75  1  0.89603317  0.30405144  0.96305849  1  0.001078  -0.007847  -0.082824  -0.169683  -0.005931  3.914574  -0.006
C  C76  1  0.45081103  0.84169448  0.44295241  1  -0.123992  0.002083  -0.062364  -0.0028  0.002033  3.925234  0.001
C  C77  1  0.04917735  0.65830210  0.94294985  1  -0.123546  0.002082  -0.062511  -0.003052  0.002031  3.925952  0.001
C  C78  1  0.54919096  0.15830285  0.55704668  1  -0.12459  0.002085  -0.062338  -0.002884  0.002034  3.925045  0.001
C  C79  1  0.95081879  0.34169284  0.05704700  1  -0.12448  0.002083  -0.062457  -0.002963  0.002032  3.925603  0.001
C  C80  1  0.61060420  0.91064632  0.43412130  1  0.01199  -0.005356  -0.079849  -0.100665  -0.003752  3.941028  -0.004
C  C81  1  0.88940048  0.58935178  0.93411421  1  -0.026694  -0.005395  -0.079845  -0.100748  -0.003754  3.940969  -0.004
C  C82  1  0.38939368  0.08935022  0.56588373  1  0.011449  -0.005357  -0.079908  -0.100788  -0.003752  3.941132  -0.004
C  C83  1  0.11060190  0.41064233  0.06588784  1  0.01171  -0.00536  -0.07992  -0.100888  -0.003753  3.941092  -0.004
C  C84  1  0.70915881  0.93949119  0.51909092  1  0.455058  1e-06  0.045074  0.099851  8.2e-05  3.917849  0.0
C  C85  1  0.79083762  0.56050895  0.01908990  1  0.455296  -1e-06  0.045113  0.099922  8e-05  3.917319  0.0
C  C86  1  0.29083519  0.06050536  0.48091559  1  0.455148  0.0  0.045136  0.100044  8.2e-05  3.917633  0.0
C  C87  1  0.20916230  0.43949483  0.98091587  1  0.455217  -0.0  0.045132  0.100043  8e-05  3.917474  0.0
S  S88  1  0.56470454  0.70844049  0.78090123  1  2.454737  -0.001663  0.479306  1.002923  -0.000856  5.611133  -0.001
S  S89  1  0.93529729  0.79158972  0.28090217  1  2.454922  -0.001661  0.479039  1.002092  -0.000854  5.612429  -0.001
S  S90  1  0.43528461  0.29154803  0.21910083  1  2.454166  -0.001668  0.479316  1.002837  -0.00086  5.61115  -0.001
S  S91  1  0.06471678  0.20842288  0.71910212  1  2.454661  -0.001664  0.479054  1.002187  -0.000856  5.612145  -0.001
N  N92  1  0.51619729  0.51611240  0.68410673  1  -1.189699  -0.085385  -0.33895  -0.215815  -0.058957  3.664612  -0.075
N  N93  1  0.98380878  0.98389375  0.18410683  1  -1.189064  -0.085395  -0.338987  -0.215884  -0.058964  3.664397  -0.075
N  N94  1  0.48379209  0.48387692  0.31588716  1  -1.190341  -0.085364  -0.33906  -0.215693  -0.058942  3.665177  -0.075
N  N95  1  0.01619578  0.01611727  0.81589448  1  -1.189905  -0.085385  -0.339019  -0.215758  -0.058956  3.664607  -0.075
N  N96  1  0.65570241  0.90360948  0.61031178  1  -1.209316  -0.086189  -0.348352  -0.278493  -0.059026  3.583727  -0.075
N  N97  1  0.84429863  0.59639082  0.11031565  1  -1.210073  -0.086201  -0.348319  -0.278411  -0.059032  3.584161  -0.075
N  N98  1  0.34429548  0.09638706  0.38968953  1  -1.208953  -0.086197  -0.348393  -0.278666  -0.059032  3.583354  -0.075
N  N99  1  0.15570327  0.40361537  0.88968715  1  -1.209241  -0.086204  -0.348255  -0.278471  -0.059035  3.583774  -0.075
Cl  Cl100  1  0.12929143  0.54284316  0.69716059  1  -0.617494  -0.135015  -0.312421  -0.509731  -0.08769  1.16313  -0.106
Cl  Cl101  1  0.37070012  0.95714492  0.19714994  1  -0.617598  -0.135019  -0.312453  -0.509782  -0.087693  1.163083  -0.106
Cl  Cl102  1  0.87071102  0.45715578  0.30283850  1  -0.617475  -0.135018  -0.31242  -0.509711  -0.08769  1.163102  -0.106
Cl  Cl103  1  0.62929859  0.04286370  0.80284692  1  -0.617631  -0.135025  -0.312442  -0.509773  -0.087696  1.163053  -0.106
Cl  Cl104  1  0.54308293  0.38277467  0.85906733  1  -0.591007  -0.150428  -0.286201  -0.470968  -0.097173  1.221751  -0.118
Cl  Cl105  1  0.95693460  0.11723294  0.35907927  1  -0.591008  -0.150437  -0.286198  -0.470967  -0.097178  1.221921  -0.118
Cl  Cl106  1  0.45690193  0.61723078  0.14092581  1  -0.59109  -0.150431  -0.286204  -0.471015  -0.097174  1.221578  -0.118
Cl  Cl107  1  0.04308162  0.88276434  0.64091313  1  -0.591114  -0.15042  -0.286232  -0.471033  -0.097166  1.221597  -0.118
O  O108  1  0.73273312  0.77224208  0.80793625  1  -1.303476  0.000483  -0.306271  -0.53901  0.000623  2.286802  0.0
O  O109  1  0.76727051  0.72779056  0.30793929  1  -1.303565  0.000484  -0.30618  -0.538785  0.000624  2.286975  0.0
O  O110  1  0.26726204  0.22774480  0.19207472  1  -1.303527  0.00048  -0.306301  -0.538942  0.000621  2.286994  0.0
O  O111  1  0.23274501  0.27221800  0.69207985  1  -1.303459  0.000483  -0.306165  -0.538725  0.000623  2.287129  0.0
O  O112  1  0.45680277  0.64939588  0.85762539  1  -1.287384  0.000244  -0.301544  -0.519776  0.000334  2.245819  0.0
O  O113  1  0.04319229  0.85065904  0.35761312  1  -1.287703  0.000249  -0.30142  -0.519381  0.000336  2.246783  0.0
O  O114  1  0.54318767  0.35059264  0.14236701  1  -1.286836  0.000242  -0.301558  -0.519806  0.000333  2.245575  0.0
O  O115  1  0.95683120  0.14936399  0.64237111  1  -1.287437  0.000245  -0.301466  -0.51954  0.000334  2.246329  0.0
