# generated using pymatgen
data_MnH8C4O7
_symmetry_space_group_name_H-M   'P 1'
_cell_length_a   7.86037961
_cell_length_b   7.86066267
_cell_length_c   13.11726462
_cell_angle_alpha   89.99998606
_cell_angle_beta   89.99963666
_cell_angle_gamma   89.99827544
_symmetry_Int_Tables_number   1
_chemical_formula_structural   MnH8C4O7
_chemical_formula_sum   'Mn4 H32 C16 O28'
_cell_volume   810.48682485
_cell_formula_units_Z   4
loop_
 _symmetry_equiv_pos_site_id
 _symmetry_equiv_pos_as_xyz
  1  'x, y, z'
loop_
 _atom_site_type_symbol
 _atom_site_label
 _atom_site_symmetry_multiplicity
 _atom_site_fract_x
 _atom_site_fract_y
 _atom_site_fract_z
 _atom_site_occupancy
 _atom_site_hle17_ddec_charge
 _atom_site_hle17_ddec_spin_density
 _atom_site_hle17_ddec_sum_bond_order
 _atom_site_hle17_magmom
 _atom_site_hse06_10hf_ddec_charge
 _atom_site_hse06_10hf_ddec_spin_density
 _atom_site_hse06_10hf_ddec_sum_bond_order
 _atom_site_hse06_10hf_magmom
 _atom_site_hse06_ddec_charge
 _atom_site_hse06_ddec_spin_density
 _atom_site_hse06_ddec_sum_bond_order
 _atom_site_hse06_magmom
 _atom_site_pbe_cm5_charge
 _atom_site_pbe_ddec_charge
 _atom_site_pbe_ddec_spin_density
 _atom_site_pbe_ddec_sum_bond_order
 _atom_site_pbe_magmom
Mn  Mn0  1  0.45185247  0.85796536  0.15799620  1  1.247415  4.803811  1.690527  4.691  1.091328  4.734525  2.185366  4.559  1.148662  4.771159  2.112094  4.614  0.586714  1.046496  4.69838  2.238913  4.506
Mn  Mn1  1  0.54814857  0.14203562  0.65799589  1  1.247431  4.803816  1.690516  4.691  1.09133  4.734538  2.18537  4.559  1.148658  4.771169  2.1121  4.614  0.586718  1.046492  4.698395  2.238922  4.506
Mn  Mn2  1  0.14208459  0.45183235  0.90796491  1  1.247478  4.803658  1.690126  4.691  1.091303  4.734523  2.184932  4.559  1.148654  4.771156  2.111671  4.614  0.586733  1.046458  4.698376  2.238472  4.506
Mn  Mn3  1  0.85791508  0.54816598  0.40796525  1  1.247428  4.80364  1.690207  4.691  1.091292  4.734496  2.185016  4.559  1.148637  4.771133  2.111756  4.614  0.586695  1.046441  4.698346  2.238564  4.506
H  H4  1  0.38060339  0.90898626  0.36866297  1  0.38602  -6e-06  0.916984  0.001  0.353233  0.000493  0.998174  0.002  0.365715  0.000266  0.984274  0.001  0.298273  0.344432  0.000706  1.007638  0.002
H  H5  1  0.61939542  0.09101717  0.86866239  1  0.386002  -7e-06  0.916981  0.001  0.353254  0.000493  0.998113  0.002  0.36574  0.000266  0.984236  0.001  0.298259  0.344452  0.000706  1.007579  0.002
H  H6  1  0.09111265  0.38059120  0.11868918  1  0.386101  -1.1e-05  0.916576  0.001  0.353311  0.000488  0.997819  0.002  0.365811  0.000262  0.984095  0.001  0.298241  0.344504  0.000701  1.007285  0.002
H  H7  1  0.90888498  0.61940853  0.61868896  1  0.386098  -1.1e-05  0.916562  0.001  0.353319  0.000488  0.997808  0.002  0.36582  0.000262  0.984087  0.001  0.298239  0.344513  0.000701  1.007269  0.002
H  H8  1  0.80851984  0.93933863  0.14513155  1  0.418678  -6.1e-05  0.822454  0.001  0.405756  0.000876  0.871028  0.001  0.414047  0.000444  0.861619  0.001  0.323757  0.399503  0.001344  0.878281  0.001
H  H9  1  0.19148261  0.06066235  0.64513337  1  0.418703  -6.1e-05  0.822509  0.001  0.405779  0.000876  0.871079  0.001  0.41407  0.000444  0.86167  0.001  0.323776  0.39953  0.001344  0.878334  0.001
H  H10  1  0.06065065  0.80858086  0.89505458  1  0.418415  -6.3e-05  0.823012  0.001  0.405507  0.000872  0.871594  0.001  0.41381  0.00044  0.862157  0.001  0.323577  0.399253  0.001339  0.878852  0.001
H  H11  1  0.93935424  0.19141366  0.39505313  1  0.418376  -6.1e-05  0.823074  0.001  0.405491  0.000872  0.87163  0.001  0.413797  0.000441  0.862186  0.001  0.323561  0.399236  0.001339  0.878887  0.001
H  H12  1  0.69975113  0.06244857  0.07466820  1  0.42049  -0.000241  0.886978  0.0  0.38551  0.000263  0.957991  0.001  0.396656  4.8e-05  0.941863  0.0  0.292501  0.377606  0.000482  0.969409  0.001
H  H13  1  0.30024443  0.93754991  0.57466567  1  0.420463  -0.000245  0.887012  0.0  0.385476  0.000263  0.958039  0.001  0.396621  4.8e-05  0.941913  0.0  0.292469  0.377576  0.000482  0.969453  0.001
H  H14  1  0.93746400  0.69981603  0.82468383  1  0.420205  -0.000245  0.887367  0.0  0.385176  0.000262  0.958506  0.001  0.39632  4.7e-05  0.942383  0.0  0.292398  0.377266  0.000481  0.969933  0.001
H  H15  1  0.06253782  0.30018361  0.32468264  1  0.420222  -0.000241  0.887329  0.0  0.385199  0.000262  0.958458  0.001  0.396343  4.7e-05  0.942338  0.0  0.292426  0.377296  0.000481  0.969873  0.001
H  H16  1  0.16349272  0.71460518  0.25475931  1  0.435244  -0.000538  0.859327  0.001  0.400464  0.000105  0.92797  0.002  0.412333  -0.000195  0.91067  0.002  0.295843  0.391963  0.000402  0.940341  0.002
H  H17  1  0.83650602  0.28539449  0.75475941  1  0.435205  -0.000538  0.859357  0.001  0.400449  0.000105  0.927966  0.002  0.412326  -0.000195  0.910652  0.002  0.295829  0.391949  0.000402  0.940336  0.002
H  H18  1  0.28528144  0.16355316  0.00477178  1  0.434802  -0.000538  0.85986  0.001  0.40012  0.000108  0.928412  0.002  0.412004  -0.000192  0.911095  0.002  0.295779  0.391616  0.000406  0.940783  0.002
H  H19  1  0.71471994  0.83644534  0.50476998  1  0.43483  -0.000537  0.859823  0.001  0.400142  0.000108  0.928382  0.002  0.412026  -0.000192  0.911065  0.002  0.295788  0.391637  0.000406  0.940755  0.002
H  H20  1  0.15617900  0.65978551  0.13803225  1  0.435831  -0.000455  0.834873  0.001  0.406486  0.00019  0.904213  0.002  0.416573  -0.000139  0.889268  0.001  0.311949  0.399129  0.000522  0.915112  0.002
H  H21  1  0.84381716  0.34021167  0.63803155  1  0.435824  -0.000452  0.834921  0.001  0.406516  0.00019  0.904154  0.002  0.4166  -0.000139  0.889213  0.001  0.311977  0.399157  0.000522  0.915056  0.002
H  H22  1  0.34035310  0.15626778  0.88808008  1  0.435558  -0.000453  0.834832  0.001  0.406241  0.000195  0.904463  0.002  0.416337  -0.000135  0.889505  0.001  0.311857  0.398882  0.000528  0.915368  0.002
H  H23  1  0.65964677  0.84372929  0.38807960  1  0.435574  -0.000454  0.834823  0.001  0.40626  0.000195  0.904444  0.002  0.416356  -0.000135  0.889485  0.001  0.31185  0.3989  0.000528  0.915349  0.002
H  H24  1  0.27816548  0.15371942  0.37344012  1  0.059848  -3.7e-05  0.943618  0.0  0.065425  0.000448  1.011334  0.0  0.068001  0.000179  1.008554  0.0  0.112749  0.063391  0.000748  1.01371  0.001
H  H25  1  0.72183200  0.84628402  0.87344287  1  0.059885  -3.4e-05  0.943634  0.0  0.065488  0.000447  1.011346  0.0  0.068064  0.000179  1.008567  0.0  0.112758  0.063452  0.000748  1.013723  0.001
H  H26  1  0.84616676  0.27806176  0.12339148  1  0.060119  -2.8e-05  0.943754  0.0  0.065593  0.00045  1.01147  0.0  0.068164  0.000181  1.008694  0.0  0.112858  0.063573  0.000751  1.013822  0.001
H  H27  1  0.15383082  0.72193923  0.62339106  1  0.060006  -3.5e-05  0.943794  0.0  0.065551  0.00045  1.011519  0.0  0.068122  0.000181  1.008742  0.0  0.112804  0.063529  0.000751  1.013869  0.001
H  H28  1  0.62406265  0.24445722  0.28314167  1  0.131227  -0.000128  0.922002  0.0  0.144545  0.000236  0.982835  0.001  0.147217  2.4e-05  0.981379  0.0  0.111523  0.142508  0.000479  0.984124  0.001
H  H29  1  0.37593834  0.75554498  0.78314422  1  0.131192  -0.000129  0.922057  0.0  0.144503  0.000236  0.982879  0.001  0.147184  2.4e-05  0.981411  0.0  0.111528  0.142467  0.000479  0.984173  0.001
H  H30  1  0.75553409  0.62412684  0.03320056  1  0.13121  -0.000132  0.921899  0.0  0.144497  0.000238  0.982826  0.001  0.147185  2.6e-05  0.981339  0.0  0.111474  0.14248  0.000481  0.9841  0.001
H  H31  1  0.24446572  0.37587419  0.53320138  1  0.131222  -0.000122  0.921919  0.0  0.14451  0.000238  0.98283  0.001  0.147209  2.6e-05  0.981331  0.0  0.111487  0.142493  0.000481  0.98411  0.001
H  H32  1  0.47183082  0.40319294  0.31144968  1  0.131885  0.000127  0.923044  0.0  0.144589  0.000501  0.981269  0.001  0.147372  0.000253  0.980175  0.001  0.111607  0.142538  0.000776  0.982176  0.001
H  H33  1  0.52816860  0.59680543  0.81144938  1  0.131887  0.000123  0.922983  0.0  0.144567  0.000501  0.981232  0.001  0.147338  0.000254  0.980153  0.001  0.111609  0.142525  0.000776  0.982127  0.001
H  H34  1  0.59680471  0.47197793  0.06148421  1  0.131707  0.000118  0.923629  0.0  0.144574  0.000499  0.981672  0.001  0.147331  0.000252  0.980615  0.001  0.111646  0.142562  0.000775  0.982544  0.001
H  H35  1  0.40319735  0.52802182  0.56148211  1  0.131724  0.000123  0.923589  0.0  0.144592  0.000499  0.981616  0.001  0.14735  0.000252  0.980558  0.001  0.111658  0.142581  0.000775  0.982484  0.001
C  C36  1  0.28674175  0.18803577  0.21110672  1  0.645648  0.002846  3.819318  0.003  0.589488  0.005984  4.122424  0.006  0.622031  0.004122  4.117093  0.004  0.225951  0.567029  0.00819  4.125422  0.007
C  C37  1  0.71325873  0.81196646  0.71110950  1  0.645664  0.002824  3.81953  0.003  0.589533  0.005983  4.1226  0.006  0.62208  0.004121  4.117267  0.004  0.225986  0.567071  0.008188  4.125602  0.007
C  C38  1  0.81192340  0.28681836  0.96114471  1  0.644344  0.00286  3.82249  0.003  0.588319  0.00599  4.125284  0.006  0.62086  0.00413  4.119979  0.004  0.225478  0.565865  0.008199  4.128265  0.007
C  C39  1  0.18808716  0.71318885  0.46114909  1  0.644625  0.002845  3.821886  0.003  0.588473  0.005991  4.124989  0.006  0.621004  0.00413  4.119689  0.004  0.225571  0.566028  0.008201  4.127957  0.007
C  C40  1  0.37340817  0.14429640  0.31238224  1  0.135878  0.001093  3.62787  0.001  0.109994  0.00276  3.878759  0.003  0.112921  0.001914  3.887077  0.002  -0.00273  0.107783  0.003597  3.873068  0.003
C  C41  1  0.62659633  0.85570833  0.81238230  1  0.135781  0.001091  3.627958  0.001  0.10979  0.002759  3.878965  0.003  0.112716  0.001914  3.887282  0.002  -0.002813  0.10758  0.003597  3.873273  0.003
C  C42  1  0.85572117  0.37342636  0.06241380  1  0.135494  0.001055  3.629683  0.001  0.109805  0.002752  3.880148  0.003  0.112735  0.001905  3.888465  0.002  -0.002736  0.10759  0.003588  3.874479  0.003
C  C43  1  0.14427834  0.62657211  0.56241267  1  0.135481  0.001082  3.629616  0.001  0.10959  0.002752  3.880505  0.003  0.112515  0.001904  3.888838  0.002  -0.002767  0.107388  0.003587  3.874807  0.003
C  C44  1  0.51435731  0.27446269  0.33226492  1  -0.332525  0.000785  3.639608  0.001  -0.374188  0.001677  3.885815  0.001  -0.381023  0.000927  3.892153  0.001  -0.163802  -0.369255  0.002479  3.881606  0.001
C  C45  1  0.48564316  0.72553567  0.83226858  1  -0.332474  0.000791  3.639629  0.001  -0.374023  0.001676  3.885791  0.001  -0.380855  0.000927  3.892135  0.001  -0.163735  -0.369087  0.002478  3.881579  0.001
C  C46  1  0.72554584  0.51437572  0.08228251  1  -0.332255  0.000807  3.64087  0.001  -0.374195  0.001672  3.887151  0.001  -0.381021  0.000923  3.893462  0.001  -0.163873  -0.369311  0.002475  3.882953  0.001
C  C47  1  0.27444964  0.48562529  0.58228090  1  -0.33232  0.000776  3.640824  0.001  -0.374154  0.001673  3.88715  0.001  -0.380992  0.000922  3.893464  0.001  -0.163874  -0.369279  0.002475  3.882953  0.001
C  C48  1  0.57236277  0.27833170  0.44261785  1  0.729436  0.011159  3.833468  0.011  0.678615  0.018951  4.136244  0.017  0.714027  0.014564  4.129304  0.014  0.227188  0.653737  0.02354  4.140156  0.021
C  C49  1  0.42763398  0.72166026  0.94261639  1  0.729491  0.011159  3.833414  0.011  0.678579  0.01895  4.136315  0.017  0.713992  0.014563  4.129371  0.014  0.227123  0.653687  0.023539  4.140244  0.021
C  C50  1  0.72168070  0.57234161  0.19260048  1  0.730023  0.011183  3.833946  0.011  0.679127  0.018983  4.136839  0.017  0.714549  0.014591  4.129866  0.014  0.227419  0.654233  0.023579  4.140789  0.021
C  C51  1  0.27831615  0.42766190  0.69259963  1  0.730133  0.011188  3.833721  0.011  0.67915  0.018983  4.136716  0.017  0.714571  0.01459  4.129747  0.014  0.227466  0.654258  0.023578  4.14067  0.021
O  O52  1  0.17335615  0.30370457  0.21465035  1  -0.608571  0.001393  2.041309  0.002  -0.54595  0.00325  2.262581  0.004  -0.571668  0.002133  2.251944  0.003  -0.298007  -0.528178  0.004506  2.269666  0.006
O  O53  1  0.82664683  0.69629894  0.71465271  1  -0.608591  0.001411  2.04129  0.002  -0.545968  0.003248  2.26255  0.004  -0.571693  0.002134  2.251914  0.003  -0.29804  -0.528194  0.004506  2.26964  0.006
O  O54  1  0.69620039  0.17348106  0.96469370  1  -0.608491  0.001398  2.041284  0.002  -0.545881  0.003257  2.262337  0.004  -0.571591  0.002138  2.251681  0.003  -0.298061  -0.528116  0.004514  2.269411  0.006
O  O55  1  0.30379358  0.82651598  0.46469228  1  -0.608492  0.001405  2.041452  0.002  -0.545772  0.003257  2.26258  0.004  -0.571468  0.00214  2.251916  0.003  -0.298036  -0.528015  0.004514  2.269657  0.006
O  O56  1  0.33478426  0.11168272  0.13076824  1  -0.628176  0.025657  2.043339  0.016  -0.552234  0.031616  2.282085  0.02  -0.582102  0.028461  2.269454  0.017  -0.290041  -0.530676  0.034609  2.290372  0.022
O  O57  1  0.66521834  0.88831446  0.63077195  1  -0.628163  0.025657  2.043517  0.016  -0.552195  0.031617  2.282214  0.02  -0.582063  0.028459  2.26958  0.017  -0.289996  -0.530634  0.034608  2.290501  0.022
O  O58  1  0.88832653  0.33486916  0.88082980  1  -0.627579  0.025665  2.044608  0.016  -0.551675  0.031615  2.283249  0.02  -0.581563  0.028458  2.270641  0.017  -0.289978  -0.530114  0.034611  2.291531  0.022
O  O59  1  0.11167215  0.66512283  0.38082533  1  -0.627809  0.025672  2.044053  0.016  -0.551862  0.031618  2.282792  0.02  -0.581727  0.028459  2.270172  0.017  -0.290051  -0.5303  0.034615  2.291074  0.022
O  O60  1  0.66798468  0.39905035  0.47311945  1  -0.687245  0.03689  2.0422  0.022  -0.624405  0.046521  2.320268  0.026  -0.655718  0.041035  2.303529  0.022  -0.320496  -0.601061  0.051756  2.331013  0.031
O  O61  1  0.33201939  0.60095177  0.97311608  1  -0.687215  0.036889  2.042193  0.022  -0.624349  0.046518  2.320313  0.026  -0.655654  0.041033  2.303567  0.022  -0.320483  -0.601024  0.051754  2.331102  0.031
O  O62  1  0.60092158  0.66796640  0.22303388  1  -0.687723  0.03694  2.042313  0.022  -0.624813  0.046573  2.320455  0.026  -0.656124  0.041078  2.303675  0.022  -0.320951  -0.60147  0.051815  2.331224  0.031
O  O63  1  0.39907877  0.33203328  0.72302954  1  -0.687761  0.036944  2.042235  0.022  -0.624829  0.046577  2.320432  0.026  -0.656142  0.041083  2.30365  0.022  -0.320973  -0.601478  0.05182  2.331192  0.031
O  O64  1  0.51939987  0.16088691  0.50088621  1  -0.652673  0.038714  2.06324  0.025  -0.583194  0.045881  2.331792  0.027  -0.61419  0.040416  2.317385  0.022  -0.310969  -0.560409  0.051213  2.341212  0.032
O  O65  1  0.48060156  0.83911286  0.00088946  1  -0.652769  0.038714  2.063002  0.025  -0.583258  0.045884  2.331569  0.027  -0.614265  0.040417  2.317169  0.022  -0.310989  -0.560469  0.051217  2.340993  0.032
O  O66  1  0.83908901  0.51938755  0.25089214  1  -0.652726  0.038756  2.063729  0.025  -0.583181  0.045924  2.332265  0.027  -0.614213  0.040453  2.317873  0.022  -0.31082  -0.560364  0.051261  2.341671  0.032
O  O67  1  0.16091232  0.48061212  0.75089173  1  -0.652815  0.038756  2.063847  0.025  -0.58321  0.045925  2.332387  0.027  -0.61424  0.040454  2.317992  0.022  -0.31086  -0.560398  0.051261  2.341799  0.032
O  O68  1  0.43870170  0.97380691  0.31044263  1  -0.602166  0.02729  2.162273  0.017  -0.532783  0.034569  2.412984  0.022  -0.555607  0.031126  2.397952  0.019  -0.38396  -0.515594  0.037808  2.422673  0.025
O  O69  1  0.56130027  0.02619401  0.81044534  1  -0.602157  0.027291  2.162363  0.017  -0.53276  0.034568  2.413014  0.022  -0.555582  0.031124  2.398002  0.019  -0.383937  -0.515547  0.037806  2.422656  0.025
O  O70  1  0.02621954  0.43875777  0.06048890  1  -0.602386  0.027265  2.161562  0.017  -0.532815  0.034526  2.411677  0.022  -0.555641  0.031087  2.396816  0.019  -0.383941  -0.515642  0.037764  2.4214  0.025
O  O71  1  0.97377871  0.56124198  0.56048920  1  -0.602274  0.027258  2.161435  0.017  -0.532725  0.034526  2.411698  0.022  -0.55555  0.031087  2.396842  0.019  -0.383908  -0.515563  0.037762  2.421419  0.025
O  O72  1  0.70522970  0.00758541  0.14376110  1  -0.818397  0.023156  1.860405  0.015  -0.769628  0.031879  2.054082  0.021  -0.790949  0.028384  2.024133  0.019  -0.559751  -0.753831  0.035122  2.075456  0.024
O  O73  1  0.29477022  0.99241685  0.64376164  1  -0.818385  0.02316  1.860437  0.015  -0.769616  0.031878  2.054119  0.021  -0.790938  0.028383  2.024173  0.019  -0.559722  -0.753823  0.035121  2.075494  0.024
O  O74  1  0.99237948  0.70532745  0.89376672  1  -0.817948  0.023106  1.860508  0.015  -0.769225  0.031822  2.054028  0.021  -0.790547  0.028331  2.0241  0.019  -0.559641  -0.753421  0.035062  2.075399  0.024
O  O75  1  0.00762034  0.29467089  0.39376575  1  -0.817939  0.0231  1.860553  0.015  -0.769233  0.031822  2.053993  0.021  -0.790556  0.028332  2.024073  0.019  -0.559672  -0.75344  0.035062  2.07536  0.024
O  O76  1  0.19457758  0.74996943  0.18403871  1  -0.847443  0.02858  1.839557  0.016  -0.792731  0.039241  2.044039  0.022  -0.813993  0.034856  2.00474  0.019  -0.56797  -0.776789  0.043294  2.07197  0.025
O  O77  1  0.80541810  0.25003281  0.68403741  1  -0.847374  0.028573  1.839646  0.016  -0.792711  0.039239  2.044086  0.022  -0.813962  0.034854  2.004769  0.019  -0.567949  -0.776773  0.043294  2.072017  0.025
O  O78  1  0.25005893  0.19467556  0.93401513  1  -0.846718  0.028627  1.840083  0.016  -0.792127  0.039285  2.044743  0.022  -0.813394  0.034894  2.00538  0.019  -0.567782  -0.776179  0.043343  2.072686  0.025
O  O79  1  0.74994046  0.80532276  0.43401431  1  -0.846744  0.028626  1.840054  0.016  -0.792151  0.039285  2.044709  0.022  -0.813418  0.034895  2.005346  0.019  -0.567777  -0.7762  0.043343  2.072649  0.025
