# generated using pymatgen
data_MnH28C28(N4Cl)2
_symmetry_space_group_name_H-M   'P 1'
_cell_length_a   7.65736548
_cell_length_b   12.63478426
_cell_length_c   14.25750000
_cell_angle_alpha   90.00000000
_cell_angle_beta   105.79680894
_cell_angle_gamma   90.00000000
_symmetry_Int_Tables_number   1
_chemical_formula_structural   MnH28C28(N4Cl)2
_chemical_formula_sum   'Mn2 H56 C56 N16 Cl4'
_cell_volume   1327.30553214
_cell_formula_units_Z   2
loop_
 _symmetry_equiv_pos_site_id
 _symmetry_equiv_pos_as_xyz
  1  'x, y, z'
loop_
 _atom_site_type_symbol
 _atom_site_label
 _atom_site_symmetry_multiplicity
 _atom_site_fract_x
 _atom_site_fract_y
 _atom_site_fract_z
 _atom_site_occupancy
 _atom_site_hle17_ddec_charge
 _atom_site_hle17_ddec_spin_density
 _atom_site_hle17_ddec_sum_bond_order
 _atom_site_hle17_magmom
 _atom_site_hse06_10hf_ddec_charge
 _atom_site_hse06_10hf_ddec_spin_density
 _atom_site_hse06_10hf_ddec_sum_bond_order
 _atom_site_hse06_10hf_magmom
 _atom_site_hse06_ddec_charge
 _atom_site_hse06_ddec_spin_density
 _atom_site_hse06_ddec_sum_bond_order
 _atom_site_hse06_magmom
 _atom_site_pbe_bader_charge
 _atom_site_pbe_bader_spin_density
 _atom_site_pbe_cm5_charge
 _atom_site_pbe_ddec_charge
 _atom_site_pbe_ddec_spin_density
 _atom_site_pbe_ddec_sum_bond_order
 _atom_site_pbe_magmom
Mn  Mn0  1  0.00000407  0.00000079  0.99999989  1  0.926489  4.781666  2.055897  4.651  0.757848  4.70476  2.549545  4.504  0.811985  4.750101  2.494729  4.57  1.407097  4.533869  0.496618  0.715573  4.660412  2.589704  4.441
Mn  Mn1  1  0.00000000  0.50000062  0.50000000  1  0.926561  4.781662  2.055844  4.651  0.757926  4.704753  2.549515  4.504  0.812085  4.750096  2.494651  4.57  1.407275  4.533455  0.496715  0.7158  4.660138  2.589666  4.441
H  H2  1  0.19018967  0.80530777  0.15358568  1  0.098438  -0.000247  0.976184  0.0  0.106144  -6.7e-05  1.040806  0.0  0.109311  -0.000142  1.038667  0.0  0.097844  0.000508  0.106447  0.103827  1.8e-05  1.042443  0.0
H  H3  1  0.80981427  0.30531111  0.34641693  1  0.098443  -0.000256  0.976258  0.0  0.106115  -6.7e-05  1.040912  0.0  0.109279  -0.000142  1.038776  0.0  0.097844  0.000506  0.106437  0.103781  1.7e-05  1.04257  0.0
H  H4  1  0.80980884  0.19469189  0.84641404  1  0.098413  -0.00025  0.976197  0.0  0.106108  -6.7e-05  1.040833  0.0  0.109274  -0.000142  1.038696  0.0  0.097834  0.000508  0.106436  0.103792  1.8e-05  1.042469  0.0
H  H5  1  0.19019238  0.69469014  0.65358397  1  0.098399  -0.000249  0.976198  0.0  0.106106  -6.7e-05  1.040829  0.0  0.109271  -0.000142  1.038692  0.0  0.097871  0.000506  0.106415  0.103771  1.7e-05  1.04249  0.0
H  H6  1  0.09791575  0.76641594  0.32963978  1  0.119882  0.000126  0.983296  0.0  0.12481  0.000378  1.053297  0.0  0.128533  0.000221  1.050698  0.0  0.160687  0.00115  0.109497  0.122012  0.000542  1.055348  0.0
H  H7  1  0.90208548  0.26641531  0.17036243  1  0.119852  0.00013  0.983284  0.0  0.124759  0.000378  1.053314  0.0  0.12848  0.000221  1.050718  0.0  0.160699  0.001151  0.109487  0.121969  0.000542  1.055338  0.0
H  H8  1  0.90208276  0.23358452  0.67035993  1  0.119876  0.000126  0.983287  0.0  0.124803  0.000378  1.053294  0.0  0.128527  0.000221  1.050692  0.0  0.160678  0.001151  0.10949  0.122004  0.000542  1.055346  0.0
H  H9  1  0.09792254  0.73358356  0.82963937  1  0.119909  0.000128  0.983284  0.0  0.124835  0.000378  1.053289  0.0  0.128557  0.000221  1.050691  0.0  0.160644  0.001151  0.109513  0.122044  0.000542  1.055316  0.0
H  H10  1  0.71430482  0.97359399  0.14870393  1  0.091073  -0.000462  0.970525  0.0  0.095134  -0.000141  1.045675  0.0  0.097594  -0.000217  1.042955  0.0  0.156786  0.000341  0.125457  0.093214  -5.7e-05  1.047754  0.0
H  H11  1  0.28569777  0.47359495  0.35129848  1  0.091039  -0.000457  0.97051  0.0  0.095107  -0.000141  1.045659  0.0  0.097557  -0.000216  1.042948  0.0  0.15679  0.000341  0.125458  0.093182  -5.7e-05  1.047723  0.0
H  H12  1  0.28569505  0.02640805  0.85129739  1  0.091091  -0.000462  0.97053  0.0  0.095144  -0.000141  1.045692  0.0  0.097606  -0.000216  1.042971  0.0  0.156848  0.000341  0.125483  0.093223  -5.7e-05  1.047773  0.0
H  H13  1  0.71430482  0.52640867  0.64870393  1  0.091029  -0.000451  0.970531  0.0  0.095083  -0.000141  1.045702  0.0  0.097545  -0.000216  1.042979  0.0  0.156828  0.000341  0.125458  0.09316  -5.7e-05  1.047765  0.0
H  H14  1  0.75654189  0.80012447  0.35971321  1  0.086973  -0.000149  0.953237  0.0  0.098464  -0.000114  1.020732  0.0  0.098971  -0.000124  1.021442  0.0  0.058888  0.000115  0.112294  0.098014  -0.000102  1.02035  0.0
H  H15  1  0.24345933  0.30012543  0.14028830  1  0.086959  -0.000137  0.953258  0.0  0.098481  -0.000114  1.02072  0.0  0.098992  -0.000124  1.021422  0.0  0.058881  0.000117  0.112272  0.097988  -0.000101  1.02036  0.0
H  H16  1  0.24345933  0.19987599  0.64028760  1  0.086959  -0.000131  0.953259  0.0  0.098446  -0.000114  1.020752  0.0  0.098955  -0.000124  1.021459  0.0  0.058881  0.000115  0.112278  0.097998  -0.000102  1.020373  0.0
H  H17  1  0.75654596  0.69987661  0.85971240  1  0.086953  -0.000141  0.953244  0.0  0.098475  -0.000114  1.020709  0.0  0.098981  -0.000124  1.021422  0.0  0.058852  0.000117  0.112287  0.098006  -0.000101  1.02033  0.0
H  H18  1  0.65185105  0.91793495  0.30328872  1  0.086238  -5.6e-05  0.921638  0.0  0.101119  -3.2e-05  0.984447  0.0  0.101976  -3.6e-05  0.984243  0.0  0.059168  4.4e-05  0.113802  0.100413  -2.6e-05  0.984725  0.0
H  H19  1  0.34815017  0.41793591  0.19671139  1  0.086204  -5e-05  0.921652  0.0  0.10108  -3.2e-05  0.98447  0.0  0.101936  -3.6e-05  0.984266  0.0  0.058966  5.1e-05  0.113757  0.100339  -2.1e-05  0.984759  0.0
H  H20  1  0.34815017  0.08206551  0.69671349  1  0.08621  -5.4e-05  0.921663  0.0  0.101087  -3.3e-05  0.984474  0.0  0.101944  -3.6e-05  0.984269  0.0  0.059153  4.4e-05  0.113791  0.100384  -2.6e-05  0.984752  0.0
H  H21  1  0.65185105  0.58206851  0.80328732  1  0.086229  -5.7e-05  0.92166  0.0  0.10108  -3.2e-05  0.984508  0.0  0.10193  -3.6e-05  0.984299  0.0  0.059164  5.1e-05  0.113792  0.100344  -2.1e-05  0.984798  0.0
H  H22  1  0.84887281  0.09186544  0.34534585  1  0.074942  -1e-06  0.972488  0.0  0.084911  2.5e-05  1.041751  0.0  0.086915  5e-06  1.041315  0.0  0.054962  0.000119  0.093008  0.083402  4.8e-05  1.042218  0.0
H  H23  1  0.15112299  0.59186606  0.15465557  1  0.07494  -3e-06  0.972496  0.0  0.084924  2.5e-05  1.041732  0.0  0.086909  5e-06  1.041325  0.0  0.054867  0.000125  0.092956  0.083338  5.3e-05  1.042253  0.0
H  H24  1  0.15112570  0.90813502  0.65465596  1  0.074928  -6e-06  0.972519  0.0  0.084903  2.5e-05  1.041768  0.0  0.086899  5e-06  1.041354  0.0  0.054936  0.000119  0.09299  0.083393  4.8e-05  1.042236  0.0
H  H25  1  0.84887417  0.40813518  0.84534535  1  0.074948  2e-06  0.972493  0.0  0.08492  2.5e-05  1.041747  0.0  0.086918  5e-06  1.041325  0.0  0.054892  0.000125  0.092968  0.083351  5.2e-05  1.042248  0.0
H  H26  1  0.96665917  0.80498407  0.51383403  1  0.099186  -0.000281  0.961133  0.0  0.106937  -0.000327  1.028411  0.0  0.10969  -0.000337  1.02723  0.0  0.06653  -1.6e-05  0.098924  0.104932  -0.000307  1.029367  0.0
H  H27  1  0.03333663  0.30498423  0.98616809  1  0.099218  -0.000293  0.961087  0.0  0.106951  -0.000327  1.028383  0.0  0.109702  -0.000337  1.027207  0.0  0.066404  -1.5e-05  0.098902  0.104895  -0.000306  1.029362  0.0
H  H28  1  0.03334206  0.19501560  0.48616818  1  0.099194  -0.00029  0.961124  0.0  0.106935  -0.000327  1.028408  0.0  0.109687  -0.000337  1.02723  0.0  0.066549  -1.6e-05  0.098927  0.104929  -0.000307  1.029365  0.0
H  H29  1  0.96665917  0.69501622  0.01383263  1  0.099174  -0.000284  0.961142  0.0  0.106907  -0.000327  1.028439  0.0  0.109659  -0.000337  1.02726  0.0  0.066467  -1.5e-05  0.098886  0.10485  -0.000306  1.029418  0.0
H  H30  1  0.44662509  0.09015429  0.05368104  1  0.107536  -8.1e-05  0.977004  0.0  0.112399  0.000327  1.044578  0.0  0.115362  0.000151  1.042627  0.0  0.139044  0.00115  0.10607  0.110178  0.000507  1.046161  0.0
H  H31  1  0.55338835  0.59014383  0.44631735  1  0.107528  -7.9e-05  0.976971  0.0  0.112326  0.000327  1.044638  0.0  0.115288  0.000152  1.042695  0.0  0.138747  0.001149  0.106016  0.110099  0.000506  1.046228  0.0
H  H32  1  0.55338835  0.90985804  0.94631805  1  0.107525  -8.3e-05  0.976955  0.0  0.112318  0.000327  1.044642  0.0  0.115279  0.000152  1.042701  0.0  0.13871  0.00115  0.106014  0.110098  0.000507  1.046224  0.0
H  H33  1  0.44661287  0.40985900  0.55368416  1  0.107541  -7.7e-05  0.976901  0.0  0.112333  0.000327  1.044576  0.0  0.115297  0.000152  1.042635  0.0  0.138827  0.001149  0.106022  0.110106  0.000506  1.046168  0.0
H  H34  1  0.62067778  0.17179082  0.23520442  1  0.11035  0.00027  0.967543  0.0  0.123969  0.000438  1.025366  0.0  0.126425  0.000322  1.024246  0.0  0.094301  0.000975  0.118689  0.122136  0.00056  1.026371  0.0
H  H35  1  0.37932209  0.67178353  0.26479409  1  0.110292  0.000266  0.967635  0.0  0.123984  0.000438  1.025389  0.0  0.126443  0.000322  1.024263  0.0  0.094376  0.000975  0.1187  0.122159  0.000559  1.026375  0.0
H  H36  1  0.37932480  0.82821675  0.76479659  1  0.110295  0.00027  0.967644  0.0  0.123989  0.000438  1.025396  0.0  0.126448  0.000322  1.02427  0.0  0.094403  0.000975  0.118691  0.122155  0.00056  1.0264  0.0
H  H37  1  0.62067371  0.32821534  0.73520663  1  0.110315  0.00027  0.96764  0.0  0.123995  0.000437  1.025414  0.0  0.126454  0.000323  1.024287  0.0  0.094412  0.000975  0.118694  0.122169  0.000559  1.026402  0.0
H  H38  1  0.07785786  0.09628261  0.22616361  1  0.08864  -0.00026  0.948314  0.0  0.09497  6.7e-05  1.019958  0.0  0.097255  -2.4e-05  1.017309  0.0  0.119991  0.000517  0.131354  0.093202  0.000164  1.021996  0.0
H  H39  1  0.92214609  0.59628402  0.27382988  1  0.08863  -0.000251  0.948299  0.0  0.094946  6.7e-05  1.01996  0.0  0.097235  -2.4e-05  1.017316  0.0  0.12019  0.000519  0.131365  0.093193  0.000165  1.021973  0.0
H  H40  1  0.92215016  0.90371547  0.77383328  1  0.08868  -0.000256  0.948241  0.0  0.094993  6.7e-05  1.019898  0.0  0.097289  -2.4e-05  1.017249  0.0  0.120187  0.000517  0.131353  0.093228  0.000164  1.021942  0.0
H  H41  1  0.07784836  0.40371406  0.72616714  1  0.088672  -0.000263  0.948222  0.0  0.094995  6.7e-05  1.019866  0.0  0.097288  -2.4e-05  1.017219  0.0  0.120175  0.000519  0.131358  0.093244  0.000165  1.021882  0.0
H  H42  1  0.26089921  0.20669922  0.37033944  1  0.086503  -0.00012  0.9341  0.0  0.099833  -7.3e-05  1.000901  0.0  0.099818  -9.1e-05  1.002259  0.0  0.090789  0.000153  0.113533  0.099753  -5e-05  1.000061  0.0
H  H43  1  0.73909794  0.70669509  0.12965376  1  0.086432  -0.000115  0.93409  0.0  0.099808  -7.4e-05  1.000882  0.0  0.099792  -9.1e-05  1.002239  0.0  0.090795  0.000157  0.113496  0.099717  -4.7e-05  1.000036  0.0
H  H44  1  0.73910066  0.79329966  0.62965766  1  0.086457  -0.000114  0.93419  0.0  0.099814  -7.3e-05  1.000971  0.0  0.099797  -9.1e-05  1.002328  0.0  0.09075  0.000153  0.113519  0.099733  -5e-05  1.000131  0.0
H  H45  1  0.26089107  0.29329428  0.87033965  1  0.086475  -0.000112  0.9342  0.0  0.099792  -7.3e-05  1.000986  0.0  0.099776  -9.1e-05  1.002337  0.0  0.090784  0.000157  0.113482  0.0997  -4.7e-05  1.000142  0.0
H  H46  1  0.49057358  0.23755214  0.37960510  1  0.092779  5.7e-05  0.920163  0.0  0.10601  0.000292  0.985694  0.0  0.107797  0.000174  0.983366  0.0  0.107423  0.000724  0.110958  0.104544  0.000419  0.987523  0.0
H  H47  1  0.50942493  0.73754643  0.12039180  1  0.092803  5.9e-05  0.920145  0.0  0.106052  0.000292  0.985683  0.0  0.107838  0.000174  0.983357  0.0  0.10756  0.000725  0.110962  0.104569  0.000419  0.987524  0.0
H  H48  1  0.50942629  0.76245148  0.62039481  1  0.092825  6.7e-05  0.920149  0.0  0.106047  0.000292  0.985708  0.0  0.107835  0.000174  0.983378  0.0  0.1074  0.000724  0.110962  0.104583  0.000419  0.987535  0.0
H  H49  1  0.49056679  0.26244611  0.87960411  1  0.09282  5.3e-05  0.920197  0.0  0.10606  0.000292  0.985694  0.0  0.107822  0.000174  0.98339  0.0  0.104786  0.000725  0.110958  0.104579  0.000419  0.987533  0.0
H  H50  1  0.60332476  0.18420734  0.54560084  1  0.092633  0.000411  0.9867  0.0  0.100872  0.00091  1.053601  0.0  0.10363  0.000657  1.052677  0.0  0.096587  0.001487  0.08825  0.098676  0.001164  1.054608  0.0
H  H51  1  0.39666696  0.68420163  0.95439788  1  0.092657  0.00041  0.986651  0.0  0.100886  0.00091  1.053563  0.0  0.10365  0.000657  1.052635  0.0  0.096631  0.001488  0.088243  0.098671  0.001165  1.054566  0.0
H  H52  1  0.39667646  0.81579470  0.45439927  1  0.092619  0.000411  0.986748  0.0  0.100882  0.00091  1.053623  0.0  0.103626  0.000657  1.052713  0.0  0.096333  0.001487  0.088253  0.098687  0.001164  1.054629  0.0
H  H53  1  0.60331391  0.31578774  0.04560136  1  0.092577  0.000413  0.986662  0.0  0.100837  0.00091  1.053573  0.0  0.103585  0.000657  1.052659  0.0  0.096234  0.001488  0.088216  0.098621  0.001165  1.05458  0.0
H  H54  1  0.30724857  0.96000927  0.33349477  1  0.078662  -4.8e-05  0.992807  0.0  0.086514  -3.7e-05  1.061995  0.0  0.08848  -5e-05  1.062207  0.0  0.077263  9.3e-05  0.091465  0.08508  -2.1e-05  1.06195  0.0
H  H55  1  0.69274587  0.46000311  0.16650575  1  0.078663  -5.3e-05  0.992813  0.0  0.086518  -3.7e-05  1.06201  0.0  0.088482  -5e-05  1.062218  0.0  0.07722  9.6e-05  0.091446  0.085057  -1.9e-05  1.061965  0.0
H  H56  1  0.69275401  0.03999277  0.66650484  1  0.078678  -5.7e-05  0.992805  0.0  0.086529  -3.7e-05  1.061992  0.0  0.088495  -5e-05  1.062205  0.0  0.077314  9.3e-05  0.091462  0.085095  -2.1e-05  1.061948  0.0
H  H57  1  0.30724043  0.53998627  0.83349498  1  0.078679  -4.8e-05  0.992804  0.0  0.08654  -3.7e-05  1.061978  0.0  0.088505  -5e-05  1.062189  0.0  0.077498  9.6e-05  0.091449  0.08508  -1.9e-05  1.061934  0.0
C  C58  1  0.07703811  0.83278826  0.17930415  1  -0.018711  0.001573  3.766296  0.002  -0.048914  0.002971  4.032515  0.003  -0.047304  0.002335  4.051391  0.003  0.346659  0.005074  -0.009146  -0.050081  0.003637  4.019803  0.004
C  C59  1  0.92296447  0.33278843  0.32069826  1  -0.01879  0.00164  3.766203  0.002  -0.048958  0.002969  4.032432  0.003  -0.047348  0.00234  4.051309  0.003  0.346473  0.005071  -0.009218  -0.050161  0.003635  4.019792  0.004
C  C60  1  0.92296176  0.16721299  0.82069576  1  -0.018635  0.001584  3.766247  0.002  -0.048825  0.00297  4.03245  0.003  -0.047214  0.002339  4.051327  0.003  0.346644  0.005074  -0.009099  -0.049991  0.003638  4.019738  0.004
C  C61  1  0.07703947  0.66721123  0.67930295  1  -0.018603  0.001568  3.766222  0.002  -0.048801  0.002969  4.032428  0.003  -0.047191  0.002339  4.051306  0.003  0.346524  0.00507  -0.009105  -0.050003  0.003634  4.019784  0.004
C  C62  1  0.03373700  0.81343217  0.26539338  1  -0.082865  -0.000436  3.674811  0.0  -0.119639  0.000666  3.93487  0.0  -0.118222  0.000107  3.952344  0.0  0.307854  0.00149  -0.006543  -0.120525  0.001114  3.923393  0.001
C  C63  1  0.96626694  0.31343155  0.23460923  1  -0.082735  -0.000513  3.674643  0.0  -0.119474  0.000667  3.934679  0.0  -0.118056  0.000105  3.952155  0.0  0.307887  0.001494  -0.006492  -0.120336  0.001117  3.923154  0.001
C  C64  1  0.96626287  0.18656828  0.73460653  1  -0.082881  -0.000451  3.674821  0.0  -0.119655  0.000667  3.934874  0.0  -0.11824  0.000106  3.95235  0.0  0.307851  0.001491  -0.006551  -0.120541  0.001114  3.923398  0.001
C  C65  1  0.03373972  0.68656732  0.76539307  1  -0.082936  -0.000431  3.674693  0.0  -0.119713  0.000666  3.934763  0.0  -0.118297  0.000105  3.952237  0.0  0.307933  0.001494  -0.006563  -0.120574  0.001118  3.923238  0.001
C  C66  1  0.83080048  0.92148625  0.17204391  1  0.142303  0.004876  3.674562  0.005  0.08613  0.006877  3.939236  0.006  0.099587  0.005726  3.951634  0.005  0.943402  0.010004  0.13665  0.07725  0.008286  3.930668  0.007
C  C67  1  0.16920074  0.42148642  0.32795760  1  0.14247  0.004883  3.674493  0.005  0.086305  0.006878  3.93915  0.006  0.099773  0.005727  3.951553  0.005  0.943675  0.009995  0.136686  0.077438  0.00828  3.93057  0.007
C  C68  1  0.16919939  0.07851658  0.82795741  1  0.142279  0.004879  3.674677  0.005  0.086105  0.006879  3.939345  0.006  0.099559  0.005725  3.951742  0.005  0.943645  0.010003  0.136604  0.077226  0.008287  3.930778  0.007
C  C69  1  0.83080184  0.57851641  0.67204200  1  0.142473  0.004841  3.674469  0.005  0.086307  0.006879  3.939135  0.006  0.099759  0.005727  3.951531  0.005  0.943661  0.009995  0.136652  0.077436  0.00828  3.930558  0.007
C  C70  1  0.78305186  0.87961059  0.33594825  1  -0.041914  0.000459  3.652226  0.0  -0.108855  0.000609  3.899529  0.001  -0.103942  0.000451  3.909163  0.0  0.341091  0.00084  -0.047356  -0.112046  0.000785  3.892991  0.001
C  C71  1  0.21694936  0.37961155  0.16405326  1  -0.04185  0.000425  3.652241  0.0  -0.108802  0.00061  3.899493  0.001  -0.103887  0.000448  3.909125  0.0  0.341252  0.000841  -0.047364  -0.111977  0.000787  3.892948  0.001
C  C72  1  0.21694936  0.12038987  0.66405256  1  -0.041912  0.000424  3.652302  0.0  -0.108837  0.00061  3.89959  0.001  -0.103923  0.000449  3.909222  0.0  0.341104  0.00084  -0.04737  -0.112044  0.000785  3.893075  0.001
C  C73  1  0.78305458  0.62038970  0.83594724  1  -0.041886  0.000446  3.652208  0.0  -0.108837  0.000609  3.89954  0.001  -0.10391  0.00045  3.909156  0.0  0.34111  0.000841  -0.047391  -0.112044  0.000787  3.893013  0.001
C  C74  1  0.89387177  0.94227648  0.42128357  1  0.069181  0.000124  3.75445  0.0  0.09049  0.000196  3.988442  0.0  0.089405  0.00013  4.012947  0.0  -0.033288  0.000292  -0.012916  0.091249  0.000239  3.971796  0.0
C  C75  1  0.10612946  0.44227744  0.07871724  1  0.069168  6.5e-05  3.754404  0.0  0.090507  0.00019  3.988364  0.0  0.089423  0.000136  4.012865  0.0  -0.033348  0.000375  -0.01295  0.091233  0.000309  3.971654  0.0
C  C76  1  0.10612946  0.05772319  0.57871794  1  0.069233  7.4e-05  3.754399  0.0  0.090534  0.000193  3.988396  0.0  0.08945  0.000136  4.0129  0.0  -0.033301  0.000292  -0.01291  0.091297  0.000239  3.971752  0.0
C  C77  1  0.89387177  0.55772381  0.92128357  1  0.069192  0.000114  3.754448  0.0  0.0905  0.000192  3.988437  0.0  0.089417  0.000132  4.012938  0.0  -0.033343  0.000374  -0.012956  0.091228  0.000308  3.97174  0.0
C  C78  1  0.91556643  0.05150780  0.41334132  1  -0.106245  -1.7e-05  3.757124  0.0  -0.127564  7.8e-05  4.00802  0.0  -0.130267  4.4e-05  4.030981  0.0  -0.057309  0.000177  -0.092704  -0.125594  0.000118  3.992464  0.0
C  C79  1  0.08443208  0.55150843  0.08666049  1  -0.10626  4.5e-05  3.757122  0.0  -0.127603  8e-05  4.008014  0.0  -0.130297  4.2e-05  4.030977  0.0  -0.057484  0.00032  -0.092779  -0.125711  0.000231  3.992498  0.0
C  C80  1  0.08443479  0.94849186  0.58666019  1  -0.106276  5.1e-05  3.757143  0.0  -0.127604  7.9e-05  4.008065  0.0  -0.13031  4.1e-05  4.031023  0.0  -0.0573  0.000177  -0.092695  -0.125634  0.000118  3.992506  0.0
C  C81  1  0.91556643  0.44849203  0.91334132  1  -0.10626  -1.9e-05  3.757154  0.0  -0.127576  7.9e-05  4.008049  0.0  -0.130281  4.3e-05  4.031008  0.0  -0.057395  0.000319  -0.092793  -0.125698  0.000231  3.992526  0.0
C  C82  1  0.97932038  0.89069744  0.50842445  1  -0.105042  8.3e-05  3.741614  0.0  -0.123626  0.00021  3.9868  0.0  -0.126135  0.000126  4.008653  0.0  -0.009729  0.000435  -0.088039  -0.121902  0.000295  3.972041  0.0
C  C83  1  0.02067813  0.39069761  0.99157737  1  -0.105103  0.000162  3.741581  0.0  -0.12369  0.000212  3.986775  0.0  -0.1262  0.000123  4.00863  0.0  -0.009683  0.000515  -0.088111  -0.121994  0.000362  3.972012  0.0
C  C84  1  0.02068084  0.10930301  0.49157707  1  -0.105122  0.000145  3.741598  0.0  -0.123698  0.00021  3.986799  0.0  -0.12621  0.000124  4.008654  0.0  -0.009745  0.000435  -0.088063  -0.121975  0.000295  3.97204  0.0
C  C85  1  0.97931903  0.60930285  0.00842425  1  -0.105052  9.2e-05  3.741651  0.0  -0.123624  0.000211  3.986856  0.0  -0.126134  0.000126  4.008706  0.0  -0.009676  0.000516  -0.088102  -0.121928  0.000362  3.972087  0.0
C  C86  1  0.39416974  0.10219803  0.11628421  1  0.001655  0.00169  3.753887  0.002  -0.030604  0.003152  4.021601  0.003  -0.028018  0.002491  4.040223  0.003  0.403332  0.005457  -0.00344  -0.032518  0.003833  4.009192  0.004
C  C87  1  0.60583556  0.60218994  0.38371368  1  0.001824  0.001634  3.753518  0.002  -0.030379  0.003152  4.021249  0.003  -0.027797  0.002487  4.039874  0.003  0.403524  0.005453  -0.003305  -0.03232  0.003829  4.008892  0.004
C  C88  1  0.60583692  0.89781114  0.88371458  1  0.001828  0.001679  3.753416  0.002  -0.030384  0.003152  4.021152  0.003  -0.027799  0.00249  4.039773  0.003  0.40306  0.005459  -0.003296  -0.0323  0.003832  4.008749  0.004
C  C89  1  0.39416295  0.39781130  0.61628743  1  0.001873  0.001655  3.753489  0.002  -0.030316  0.003151  4.021204  0.003  -0.027737  0.00249  4.039834  0.003  0.40346  0.005453  -0.003281  -0.032257  0.003829  4.008847  0.004
C  C90  1  0.48367770  0.14237995  0.20635631  1  -0.086671  -0.000447  3.688573  0.0  -0.126951  0.000556  3.947752  0.0  -0.125888  1.4e-05  3.966166  0.0  0.307223  0.00145  -0.007336  -0.127632  0.000994  3.935571  0.001
C  C91  1  0.51632624  0.64237187  0.29364069  1  -0.086563  -0.000363  3.688603  0.0  -0.126933  0.000554  3.947767  0.0  -0.125866  1.7e-05  3.966177  0.0  0.307393  0.001451  -0.007367  -0.1276  0.000995  3.935557  0.001
C  C92  1  0.51632895  0.85762762  0.79364249  1  -0.086633  -0.000435  3.688578  0.0  -0.126996  0.000555  3.947745  0.0  -0.125932  1.3e-05  3.966155  0.0  0.307402  0.00145  -0.007368  -0.127679  0.000993  3.935566  0.001
C  C93  1  0.48366956  0.35762700  0.70635932  1  -0.086657  -0.000411  3.688664  0.0  -0.12702  0.000555  3.947841  0.0  -0.125955  1.4e-05  3.966252  0.0  0.307415  0.001451  -0.007391  -0.127687  0.000995  3.935633  0.001
C  C94  1  0.20018537  0.10436427  0.20247198  1  0.15525  0.00368  3.672169  0.004  0.096007  0.005772  3.942437  0.005  0.109929  0.00488  3.954491  0.005  0.991553  0.008285  0.140244  0.086888  0.006784  3.933917  0.006
C  C95  1  0.79981993  0.60436172  0.29752312  1  0.155454  0.003629  3.67224  0.004  0.096211  0.005772  3.942466  0.005  0.110127  0.004877  3.954529  0.005  0.991482  0.00828  0.140251  0.087096  0.00678  3.933928  0.006
C  C96  1  0.79982265  0.89563856  0.79752562  1  0.155246  0.003662  3.672285  0.004  0.09601  0.005772  3.942521  0.005  0.10992  0.004879  3.954588  0.005  0.991495  0.008284  0.140186  0.086883  0.006784  3.934013  0.006
C  C97  1  0.20017587  0.39563636  0.70247480  1  0.15536  0.003684  3.672239  0.004  0.096116  0.005772  3.942493  0.005  0.110026  0.00488  3.954562  0.005  0.991477  0.00828  0.140203  0.086995  0.00678  3.933962  0.006
C  C98  1  0.38922143  0.17370142  0.36232981  1  -0.039309  0.000566  3.643204  0.001  -0.105715  0.000903  3.892862  0.001  -0.100662  0.000665  3.902265  0.001  0.274165  0.001284  -0.04569  -0.108933  0.001165  3.886468  0.001
C  C99  1  0.61077845  0.67369730  0.13766730  1  -0.039103  0.000556  3.642956  0.001  -0.105667  0.000904  3.892643  0.001  -0.100612  0.000664  3.902046  0.001  0.273972  0.001285  -0.045626  -0.108877  0.001167  3.886224  0.001
C  C100  1  0.61078252  0.82630061  0.63767000  1  -0.039248  0.000541  3.643235  0.001  -0.105733  0.000903  3.892936  0.001  -0.100676  0.000665  3.90234  0.001  0.274279  0.001284  -0.045627  -0.10895  0.001165  3.886539  0.001
C  C101  1  0.38921193  0.32629445  0.86232982  1  -0.039227  0.000563  3.643471  0.001  -0.105611  0.000903  3.892911  0.001  -0.100532  0.000665  3.902317  0.001  0.276649  0.001285  -0.045559  -0.108822  0.001166  3.886491  0.001
C  C102  1  0.44882645  0.08221035  0.43194012  1  0.063349  3.6e-05  3.755015  0.0  0.082919  0.000159  3.993173  0.0  0.081672  0.000101  4.017799  0.0  -0.025683  0.000331  -0.016965  0.083721  0.000244  3.976444  0.0
C  C103  1  0.55117071  0.58220622  0.06805869  1  0.063256  -1.3e-05  3.755044  0.0  0.083024  0.00016  3.992984  0.0  0.081781  0.000101  4.017609  0.0  -0.025882  0.000335  -0.017002  0.083822  0.000247  3.976199  0.0
C  C104  1  0.55117749  0.91779011  0.56805899  1  0.063303  -3e-06  3.755081  0.0  0.082963  0.00016  3.993161  0.0  0.081718  0.000101  4.017782  0.0  -0.025738  0.000331  -0.017013  0.083765  0.000244  3.976432  0.0
C  C105  1  0.44881288  0.41778315  0.93194164  1  0.063312  6.8e-05  3.755161  0.0  0.083006  0.00016  3.993131  0.0  0.081757  0.000101  4.017746  0.0  -0.026212  0.000335  -0.016992  0.083807  0.000247  3.976345  0.0
C  C106  1  0.55671075  0.10336465  0.52615923  1  -0.112405  0.000382  3.752054  0.0  -0.126975  0.000866  3.991522  0.001  -0.130188  0.000662  4.014114  0.001  -0.022369  0.001392  -0.095298  -0.124674  0.001086  3.976337  0.001
C  C107  1  0.44328233  0.60335894  0.97383898  1  -0.112487  0.000438  3.752052  0.0  -0.127079  0.000865  3.991421  0.001  -0.130303  0.000662  4.014011  0.001  -0.022427  0.001412  -0.095313  -0.124776  0.001102  3.976188  0.001
C  C108  1  0.44329047  0.89663660  0.47384017  1  -0.112406  0.000421  3.752126  0.0  -0.127001  0.000865  3.991531  0.001  -0.130203  0.000662  4.014129  0.001  -0.022234  0.001392  -0.095289  -0.1247  0.001086  3.976344  0.001
C  C109  1  0.55670125  0.39663123  0.02616135  1  -0.112234  0.000354  3.751997  0.0  -0.126863  0.000865  3.991408  0.001  -0.130066  0.000662  4.014009  0.001  -0.02144  0.001412  -0.095225  -0.124561  0.001102  3.976172  0.001
C  C110  1  0.39258997  0.97833487  0.40633274  1  -0.116084  -3.4e-05  3.77113  0.0  -0.135899  7.1e-05  4.018775  0.0  -0.138222  3.1e-05  4.041184  0.0  -0.110835  0.000219  -0.099209  -0.13421  0.000119  4.003521  0.0
C  C111  1  0.60740176  0.47833029  0.09366808  1  -0.116167  3.1e-05  3.771283  0.0  -0.136062  7.1e-05  4.018891  0.0  -0.13838  3.1e-05  4.04129  0.0  -0.110644  0.000226  -0.099255  -0.134366  0.000123  4.003596  0.0
C  C112  1  0.60740990  0.02166638  0.59366717  1  -0.116163  2.3e-05  3.771213  0.0  -0.136  7.1e-05  4.018811  0.0  -0.138322  3.2e-05  4.041217  0.0  -0.110944  0.000219  -0.099218  -0.134312  0.000119  4.003558  0.0
C  C113  1  0.39257911  0.52165988  0.90633186  1  -0.116125  -6.2e-05  3.771166  0.0  -0.135991  7.1e-05  4.018728  0.0  -0.138309  3.1e-05  4.041138  0.0  -0.111312  0.000226  -0.099268  -0.134295  0.000123  4.00343  0.0
N  N114  1  0.94985445  0.90034066  0.12172321  1  -0.363689  0.025567  3.240262  0.013  -0.297423  0.030673  3.523402  0.014  -0.317489  0.027295  3.539795  0.012  -1.240315  0.048386  -0.345694  -0.282915  0.033755  3.511683  0.016
N  N115  1  0.05015085  0.40034004  0.37827960  1  -0.363702  0.025553  3.240161  0.013  -0.297473  0.030675  3.523343  0.014  -0.317541  0.027298  3.539728  0.012  -1.240385  0.048376  -0.345694  -0.283024  0.033747  3.511716  0.016
N  N116  1  0.05014677  0.09966217  0.87827830  1  -0.363695  0.025565  3.240345  0.013  -0.297422  0.030672  3.523478  0.014  -0.317487  0.027296  3.539868  0.012  -1.240419  0.048387  -0.345697  -0.282911  0.033755  3.511755  0.016
N  N117  1  0.94985310  0.59966121  0.62172091  1  -0.363764  0.02559  3.24032  0.013  -0.297516  0.030673  3.523496  0.014  -0.317583  0.027299  3.539885  0.012  -1.240515  0.04837  -0.345747  -0.283069  0.033747  3.511879  0.016
N  N118  1  0.87616452  0.87002040  0.25910988  1  -0.065816  0.00114  3.579626  0.001  0.028175  0.002542  3.796307  0.002  0.013515  0.001927  3.822452  0.002  -1.227571  0.004942  -0.246823  0.037852  0.00318  3.778593  0.003
N  N119  1  0.12383806  0.37002056  0.24089253  1  -0.065996  0.001143  3.579723  0.001  0.027976  0.002543  3.796426  0.002  0.013315  0.001924  3.822568  0.002  -1.227779  0.004948  -0.246867  0.037671  0.003185  3.778653  0.003
N  N120  1  0.12383535  0.12998006  0.74089073  1  -0.065809  0.001143  3.579671  0.001  0.028186  0.002543  3.796325  0.002  0.013527  0.001925  3.82247  0.002  -1.227757  0.004943  -0.246786  0.037868  0.00318  3.778613  0.003
N  N121  1  0.87616588  0.62997910  0.75910868  1  -0.065912  0.001141  3.57951  0.001  0.028084  0.002544  3.796182  0.002  0.013427  0.001923  3.822322  0.002  -1.227733  0.004948  -0.246828  0.037781  0.003185  3.778419  0.003
N  N122  1  0.21749767  0.07878409  0.11499087  1  -0.360699  0.026268  3.263007  0.013  -0.292241  0.030031  3.546616  0.013  -0.312943  0.026983  3.563079  0.011  -1.24232  0.047921  -0.344295  -0.277219  0.032721  3.534743  0.015
N  N123  1  0.78251035  0.57877917  0.38500321  1  -0.360994  0.026313  3.26307  0.013  -0.292515  0.030036  3.546665  0.013  -0.313219  0.026989  3.563126  0.011  -1.242446  0.04789  -0.344448  -0.277524  0.032709  3.534839  0.015
N  N124  1  0.78251306  0.92122269  0.88500501  1  -0.360925  0.026289  3.263128  0.013  -0.29245  0.030035  3.546731  0.013  -0.313151  0.026989  3.563192  0.011  -1.241837  0.047914  -0.344395  -0.277426  0.032726  3.534856  0.015
N  N125  1  0.21748817  0.42122207  0.61499650  1  -0.361018  0.026284  3.263174  0.013  -0.292557  0.030037  3.546789  0.013  -0.31326  0.026987  3.56325  0.011  -1.242519  0.047892  -0.34447  -0.277566  0.03271  3.534963  0.015
N  N126  1  0.35808480  0.14377531  0.26024631  1  -0.069071  0.000878  3.597346  0.001  0.025494  0.001988  3.814792  0.002  0.011107  0.001514  3.840276  0.002  -1.268044  0.004023  -0.249865  0.035039  0.002442  3.797365  0.002
N  N127  1  0.64191643  0.64377039  0.23975100  1  -0.069302  0.000867  3.597506  0.001  0.025305  0.001988  3.814961  0.002  0.010913  0.001515  3.840452  0.002  -1.268127  0.004023  -0.249817  0.034863  0.002442  3.7975  0.002
N  N128  1  0.64191915  0.85622831  0.73975280  1  -0.069042  0.00088  3.597391  0.001  0.025561  0.001988  3.814812  0.002  0.011168  0.001514  3.84031  0.002  -1.268309  0.004024  -0.249788  0.035106  0.002442  3.797386  0.002
N  N129  1  0.35807665  0.35622611  0.76024792  1  -0.069165  0.000866  3.59757  0.001  0.025394  0.001989  3.81498  0.002  0.011003  0.001514  3.840466  0.002  -1.268072  0.004023  -0.249749  0.03495  0.002442  3.797521  0.002
Cl  Cl130  1  0.77054944  0.13630783  0.02399722  1  -0.640205  0.043571  0.785049  0.029  -0.585744  0.057654  1.037035  0.034  -0.603603  0.048953  1.016374  0.028  -0.761304  0.083643  -0.333429  -0.570667  0.066064  1.051157  0.04
Cl  Cl131  1  0.22945722  0.63630766  0.47600298  1  -0.640222  0.043571  0.785037  0.029  -0.58575  0.057654  1.037009  0.034  -0.603612  0.048952  1.016347  0.028  -0.761292  0.083652  -0.333413  -0.570653  0.066072  1.05111  0.04
Cl  Cl132  1  0.22945722  0.86369183  0.97600368  1  -0.640216  0.04357  0.785038  0.029  -0.585746  0.057655  1.037019  0.034  -0.603607  0.048952  1.016368  0.028  -0.761316  0.083646  -0.333426  -0.570659  0.066063  1.051123  0.04
Cl  Cl133  1  0.77054130  0.36369359  0.52399603  1  -0.640225  0.043571  0.785023  0.029  -0.585748  0.057654  1.036997  0.034  -0.603614  0.048953  1.016341  0.028  -0.761286  0.083651  -0.333426  -0.570639  0.066072  1.051075  0.04
