# generated using pymatgen
data_EuH8C6O7
_symmetry_space_group_name_H-M   'P 1'
_cell_length_a   7.73923606
_cell_length_b   10.62687767
_cell_length_c   12.91902716
_cell_angle_alpha   71.89277448
_cell_angle_beta   72.56983828
_cell_angle_gamma   68.64722546
_symmetry_Int_Tables_number   1
_chemical_formula_structural   EuH8C6O7
_chemical_formula_sum   'Eu4 H32 C24 O28'
_cell_volume   919.48614901
_cell_formula_units_Z   4
loop_
 _symmetry_equiv_pos_site_id
 _symmetry_equiv_pos_as_xyz
  1  'x, y, z'
loop_
 _atom_site_type_symbol
 _atom_site_label
 _atom_site_symmetry_multiplicity
 _atom_site_fract_x
 _atom_site_fract_y
 _atom_site_fract_z
 _atom_site_occupancy
 _atom_site_hle17_bader_spin_density
 _atom_site_hle17_ddec_charge
 _atom_site_hle17_ddec_spin_density
 _atom_site_hle17_ddec_sum_bond_order
 _atom_site_hle17_magmom
 _atom_site_hse06_10hf_bader_spin_density
 _atom_site_hse06_10hf_ddec_charge
 _atom_site_hse06_10hf_ddec_spin_density
 _atom_site_hse06_10hf_ddec_sum_bond_order
 _atom_site_hse06_10hf_magmom
 _atom_site_hse06_bader_spin_density
 _atom_site_hse06_ddec_charge
 _atom_site_hse06_ddec_spin_density
 _atom_site_hse06_ddec_sum_bond_order
 _atom_site_hse06_magmom
 _atom_site_pbe_bader_spin_density
 _atom_site_pbe_cm5_charge
 _atom_site_pbe_ddec_charge
 _atom_site_pbe_ddec_spin_density
 _atom_site_pbe_ddec_sum_bond_order
 _atom_site_pbe_magmom
C  C0  1  0.43554744  0.76722660  0.53826281  1  0  0.753114  0  3.764235  0  0  0.711531  0  4.063057  0  0  0.745609  0  4.052562  0  0  0.230753  0.688535  0  4.062049  0
C  C1  1  0.74104474  0.73278026  0.96173561  1  0  0.754183  0  3.764744  0  0  0.711649  0  4.064864  0  0  0.74583  0  4.054272  0  0  0.229636  0.688564  0  4.063897  0
C  C2  1  0.56445288  0.23277340  0.46173672  1  0  0.753053  0  3.764294  0  0  0.711472  0  4.06311  0  0  0.745549  0  4.052616  0  0  0.230737  0.688475  0  4.062104  0
C  C3  1  0.25895399  0.26721950  0.03826475  1  0  0.754131  0  3.76485  0  0  0.711626  0  4.064927  0  0  0.745807  0  4.054337  0  0  0.229642  0.688541  0  4.063959  0
C  C4  1  0.39528476  0.73941284  0.44124171  1  0  -0.238658  0  3.644099  0  0  -0.278722  0  3.891874  0  0  -0.283432  0  3.898597  0  0  -0.155268  -0.276325  0  3.889531  0
C  C5  1  0.57592788  0.76059385  0.05874738  1  0  -0.236283  0  3.64405  0  0  -0.276181  0  3.891869  0  0  -0.281057  0  3.898783  0  0  -0.15452  -0.273624  0  3.889367  0
C  C6  1  0.60471377  0.26058817  0.55875782  1  0  -0.238624  0  3.644087  0  0  -0.278696  0  3.891863  0  0  -0.283407  0  3.898592  0  0  -0.155275  -0.276312  0  3.889523  0
C  C7  1  0.42407194  0.23940716  0.94125215  1  0  -0.236255  0  3.643983  0  0  -0.276175  0  3.891819  0  0  -0.281047  0  3.898721  0  0  -0.154539  -0.273618  0  3.889319  0
C  C8  1  0.20191666  0.83090806  0.41385779  1  0  -0.237503  0  3.641133  0  0  -0.278892  0  3.890826  0  0  -0.28443  0  3.899211  0  0  -0.152999  -0.275767  0  3.887338  0
C  C9  1  0.44667617  0.66909048  0.08613708  1  0  -0.238558  0  3.641821  0  0  -0.278974  0  3.892051  0  0  -0.284429  0  3.900402  0  0  -0.154323  -0.275969  0  3.888607  0
C  C10  1  0.79808157  0.16909271  0.58614257  1  0  -0.237556  0  3.641103  0  0  -0.278929  0  3.89078  0  0  -0.284473  0  3.899162  0  0  -0.152988  -0.275798  0  3.887288  0
C  C11  1  0.55332386  0.33090928  0.91386328  1  0  -0.238487  0  3.641827  0  0  -0.278903  0  3.892054  0  0  -0.28435  0  3.900398  0  0  -0.154313  -0.275903  0  3.888615  0
C  C12  1  0.19356028  0.98109827  0.35704564  1  0  0.760695  0  3.793319  0  0  0.72082  0  4.092071  0  0  0.754671  0  4.081783  0  0  0.24146  0.697167  0  4.094434  0
C  C13  1  0.53170291  0.51890244  0.14294448  1  0  0.762866  0  3.792908  0  0  0.721139  0  4.094709  0  0  0.75496  0  4.084432  0  0  0.241492  0.697503  0  4.09705  0
C  C14  1  0.80643984  0.01890297  0.64295306  1  0  0.760804  0  3.793277  0  0  0.720912  0  4.092043  0  0  0.754764  0  4.081753  0  0  0.241479  0.697259  0  4.094406  0
C  C15  1  0.46829712  0.48109732  0.85705588  1  0  0.762863  0  3.792904  0  0  0.721136  0  4.094703  0  0  0.754955  0  4.084426  0  0  0.241496  0.697503  0  4.097042  0
C  C16  1  0.18070111  0.89646803  0.89361538  1  0  0.73799  0  3.812831  0  0  0.695012  0  4.118033  0  0  0.728652  0  4.108331  0  0  0.214314  0.672584  0  4.116009  0
C  C17  1  0.97079975  0.60352023  0.60639072  1  0  0.735973  0  3.813754  0  0  0.69222  0  4.120274  0  0  0.725827  0  4.110647  0  0  0.213377  0.669841  0  4.118123  0
C  C18  1  0.81929841  0.10353275  0.10638498  1  0  0.73794  0  3.812867  0  0  0.694956  0  4.118084  0  0  0.728595  0  4.108382  0  0  0.214227  0.672528  0  4.116058  0
C  C19  1  0.02920028  0.39647954  0.39360964  1  0  0.735971  0  3.813697  0  0  0.692216  0  4.120222  0  0  0.725822  0  4.110597  0  0  0.213392  0.669836  0  4.118071  0
C  C20  1  0.99589162  0.95063008  0.96988202  1  0  -0.235077  0  3.684374  0  0  -0.275666  0  3.936039  0  0  -0.28101  0  3.944256  0  0  -0.156467  -0.272765  0  3.932205  0
C  C21  1  0.91641026  0.54937205  0.53011831  1  0  -0.231914  0  3.679668  0  0  -0.271745  0  3.929844  0  0  -0.277041  0  3.938046  0  0  -0.155019  -0.268814  0  3.925913  0
C  C22  1  0.00410820  0.04937093  0.03011751  1  0  -0.235093  0  3.684385  0  0  -0.275606  0  3.935998  0  0  -0.280946  0  3.944214  0  0  -0.156455  -0.272706  0  3.932167  0
C  C23  1  0.08358977  0.45062771  0.46988206  1  0  -0.231859  0  3.679664  0  0  -0.271674  0  3.929826  0  0  -0.276973  0  3.938032  0  0  -0.154993  -0.268743  0  3.925895  0
Eu  Eu24  1  0.51378995  0.81130049  0.73028009  1  0  2.292591  0  1.627415  0  0  2.219302  0  1.957947  0  0  2.264605  0  1.918993  0  0  1.513231  2.112773  0  2.120074  0
Eu  Eu25  1  0.05537126  0.68869206  0.76972794  1  0  2.292879  0  1.627216  0  0  2.219767  0  1.957685  0  0  2.265061  0  1.918741  0  0  1.513783  2.113234  0  2.119782  0
Eu  Eu26  1  0.48621038  0.18869951  0.26971944  1  0  2.292566  0  1.627419  0  0  2.219301  0  1.957948  0  0  2.264603  0  1.918995  0  0  1.513243  2.112763  0  2.12008  0
Eu  Eu27  1  0.94462877  0.31130771  0.23027242  1  0  2.292883  0  1.62721  0  0  2.21977  0  1.957679  0  0  2.265063  0  1.918737  0  0  1.513787  2.113232  0  2.119782  0
H  H28  1  0.39614115  0.63054713  0.46533556  1  0  0.121798  0  0.921695  0  0  0.136399  0  0.978459  0  0  0.138971  0  0.977079  0  0  0.110691  0.134383  0  0.980054  0
H  H29  1  0.49201687  0.86945993  0.03466332  1  0  0.121207  0  0.921562  0  0  0.135813  0  0.978295  0  0  0.138371  0  0.976994  0  0  0.111023  0.133785  0  0.979894  0
H  H30  1  0.60385708  0.36945365  0.53466480  1  0  0.121805  0  0.921698  0  0  0.136408  0  0.978459  0  0  0.138979  0  0.977078  0  0  0.110696  0.134392  0  0.980057  0
H  H31  1  0.50798265  0.13054084  0.96533704  1  0  0.121189  0  0.921531  0  0  0.135802  0  0.978265  0  0  0.13836  0  0.976967  0  0  0.111019  0.133775  0  0.979864  0
H  H32  1  0.50965657  0.75330557  0.36840714  1  0  0.120336  0  0.911756  0  0  0.135839  0  0.963042  0  0  0.138465  0  0.961649  0  0  0.111358  0.133728  0  0.964767  0
H  H33  1  0.63136178  0.74669048  0.13158315  1  0  0.119328  0  0.912499  0  0  0.134976  0  0.963776  0  0  0.137653  0  0.962381  0  0  0.111099  0.132844  0  0.965461  0
H  H34  1  0.49034375  0.24669443  0.63159239  1  0  0.120326  0  0.911765  0  0  0.135835  0  0.963052  0  0  0.138459  0  0.96166  0  0  0.111359  0.133736  0  0.964764  0
H  H35  1  0.36863804  0.25331053  0.86841638  1  0  0.119338  0  0.912469  0  0  0.134988  0  0.963749  0  0  0.137665  0  0.962353  0  0  0.111129  0.132856  0  0.965435  0
H  H36  1  0.16388665  0.78864399  0.35889057  1  0  0.105554  0  0.911303  0  0  0.125768  0  0.960936  0  0  0.127647  0  0.960633  0  0  0.107547  0.124225  0  0.961783  0
H  H37  1  0.31141804  0.71134934  0.14110895  1  0  0.105038  0  0.91252  0  0  0.125194  0  0.96209  0  0  0.127012  0  0.961901  0  0  0.10726  0.123637  0  0.962993  0
H  H38  1  0.83611257  0.21135654  0.64111063  1  0  0.105596  0  0.911237  0  0  0.125799  0  0.96088  0  0  0.127678  0  0.960578  0  0  0.107563  0.124255  0  0.961725  0
H  H39  1  0.68858229  0.28865066  0.85889058  1  0  0.105031  0  0.912515  0  0  0.125189  0  0.962084  0  0  0.127004  0  0.961896  0  0  0.107266  0.123633  0  0.962988  0
H  H40  1  0.08824788  0.83154063  0.48923356  1  0  0.111817  0  0.941633  0  0  0.124439  0  1.005327  0  0  0.127148  0  1.004621  0  0  0.11182  0.122929  0  1.005224  0
H  H41  1  0.40900761  0.66845649  0.01076412  1  0  0.111684  0  0.941983  0  0  0.123859  0  1.00609  0  0  0.12657  0  1.005356  0  0  0.11218  0.122416  0  1.005893  0
H  H42  1  0.91175164  0.16846014  0.51076680  1  0  0.111805  0  0.941666  0  0  0.124438  0  1.005341  0  0  0.12715  0  1.004633  0  0  0.111811  0.122928  0  1.005236  0
H  H43  1  0.59099271  0.33154351  0.98923541  1  0  0.111633  0  0.941997  0  0  0.123814  0  1.006103  0  0  0.126524  0  1.005368  0  0  0.112164  0.122372  0  1.005905  0
H  H44  1  0.95449236  0.86129425  0.02846646  1  0  0.123891  0  0.921825  0  0  0.140197  0  0.974988  0  0  0.142844  0  0.974092  0  0  0.112455  0.13806  0  0.976387  0
H  H45  1  0.84426862  0.63870932  0.47153300  1  0  0.122598  0  0.922183  0  0  0.138942  0  0.975173  0  0  0.141566  0  0.974281  0  0  0.111821  0.136745  0  0.976715  0
H  H46  1  0.04550746  0.13870676  0.97153307  1  0  0.123887  0  0.92181  0  0  0.140193  0  0.974959  0  0  0.142838  0  0.97406  0  0  0.112449  0.138055  0  0.97636  0
H  H47  1  0.15573191  0.36128943  0.52846736  1  0  0.122585  0  0.922188  0  0  0.138926  0  0.975177  0  0  0.141549  0  0.974287  0  0  0.111809  0.13673  0  0.976719  0
H  H48  1  0.88610529  0.00073665  0.91960341  1  0  0.111688  0  0.902174  0  0  0.130438  0  0.953677  0  0  0.132425  0  0.953312  0  0  0.112572  0.128907  0  0.954426  0
H  H49  1  0.80644609  0.49927077  0.58039985  1  0  0.110217  0  0.90267  0  0  0.128915  0  0.954165  0  0  0.130909  0  0.953749  0  0  0.111915  0.127433  0  0.954852  0
H  H50  1  0.11389453  0.99926436  0.08039612  1  0  0.111677  0  0.902207  0  0  0.130398  0  0.953731  0  0  0.132382  0  0.95337  0  0  0.112565  0.128869  0  0.954477  0
H  H51  1  0.19355574  0.50072799  0.41960051  1  0  0.110199  0  0.902679  0  0  0.128899  0  0.954169  0  0  0.130896  0  0.953748  0  0  0.1119  0.127417  0  0.954856  0
H  H52  1  0.32536146  0.08267792  0.58742507  1  0  0.446255  0  0.84826  0  0  0.416209  0  0.909944  0  0  0.427419  0  0.893455  0  0  0.300664  0.407953  0  0.921874  0
H  H53  1  0.99545954  0.41732219  0.91258268  1  0  0.448019  0  0.845571  0  0  0.418055  0  0.90716  0  0  0.429251  0  0.89069  0  0  0.301704  0.409806  0  0.919052  0
H  H54  1  0.67463935  0.91732285  0.41257529  1  0  0.446248  0  0.848271  0  0  0.416203  0  0.909954  0  0  0.427413  0  0.893465  0  0  0.300659  0.407947  0  0.921884  0
H  H55  1  0.00454079  0.58267781  0.08741684  1  0  0.448019  0  0.845571  0  0  0.418055  0  0.907161  0  0  0.429252  0  0.890689  0  0  0.301705  0.409806  0  0.919053  0
H  H56  1  0.16275561  0.00334703  0.64602762  1  0  0.433542  0  0.861009  0  0  0.405244  0  0.920539  0  0  0.415894  0  0.904961  0  0  0.299863  0.397251  0  0.932029  0
H  H57  1  0.81213107  0.49664943  0.85397276  1  0  0.432153  0  0.863076  0  0  0.403983  0  0.922345  0  0  0.414632  0  0.906791  0  0  0.299326  0.395961  0  0.933863  0
H  H58  1  0.83724442  0.99665274  0.35397274  1  0  0.433541  0  0.861009  0  0  0.405243  0  0.92054  0  0  0.415893  0  0.904962  0  0  0.299864  0.39725  0  0.93203  0
H  H59  1  0.18787054  0.50335057  0.14602677  1  0  0.432156  0  0.863064  0  0  0.403988  0  0.922329  0  0  0.414636  0  0.906776  0  0  0.299314  0.395966  0  0.933848  0
O  O60  1  0.56586153  0.81992014  0.52586957  1  0  -0.688089  0  2.036686  0  0  -0.641633  0  2.270427  0  0  -0.666551  0  2.260608  0  0  -0.340124  -0.617522  0  2.277109  0
O  O61  1  0.91164223  0.68008764  0.97415489  1  0  -0.688704  0  2.038843  0  0  -0.64215  0  2.27341  0  0  -0.66705  0  2.263474  0  0  -0.339232  -0.61798  0  2.279984  0
O  O62  1  0.43413879  0.18007986  0.47412995  1  0  -0.688073  0  2.036694  0  0  -0.641625  0  2.27045  0  0  -0.666542  0  2.260632  0  0  -0.340128  -0.617514  0  2.277131  0
O  O63  1  0.08835859  0.31991313  0.02584547  1  0  -0.688705  0  2.038922  0  0  -0.642153  0  2.273461  0  0  -0.667051  0  2.263526  0  0  -0.339243  -0.617984  0  2.280036  0
O  O64  1  0.33966569  0.73383917  0.63749616  1  0  -0.832265  0  2.127743  0  0  -0.79383  0  2.386951  0  0  -0.81952  0  2.376536  0  0  -0.433378  -0.758733  0  2.393723  0
O  O65  1  0.71106790  0.76616533  0.86249155  1  0  -0.832492  0  2.125803  0  0  -0.793751  0  2.385792  0  0  -0.819479  0  2.375325  0  0  -0.432874  -0.758641  0  2.392575  0
O  O66  1  0.66033434  0.26616059  0.36250420  1  0  -0.832249  0  2.127759  0  0  -0.793825  0  2.386983  0  0  -0.819509  0  2.376562  0  0  -0.433379  -0.758727  0  2.393754  0
O  O67  1  0.28893342  0.23383443  0.13750881  1  0  -0.832472  0  2.12583  0  0  -0.793726  0  2.385779  0  0  -0.819457  0  2.375314  0  0  -0.432864  -0.758612  0  2.392554  0
O  O68  1  0.03690654  0.06388757  0.33081094  1  0  -0.746064  0  2.011441  0  0  -0.70321  0  2.255818  0  0  -0.728688  0  2.244941  0  0  -0.364706  -0.676003  0  2.264226  0
O  O69  1  0.43159375  0.43611057  0.16920489  1  0  -0.74889  0  2.012698  0  0  -0.705275  0  2.257772  0  0  -0.730716  0  2.246909  0  0  -0.366162  -0.6781  0  2.266189  0
O  O70  1  0.96309220  0.93611220  0.66918942  1  0  -0.746101  0  2.011406  0  0  -0.703243  0  2.255788  0  0  -0.728722  0  2.24491  0  0  -0.364717  -0.676035  0  2.264194  0
O  O71  1  0.56840628  0.56388919  0.83079547  1  0  -0.748903  0  2.012681  0  0  -0.705288  0  2.257753  0  0  -0.73073  0  2.246892  0  0  -0.366172  -0.678115  0  2.266171  0
O  O72  1  0.34196770  0.01491875  0.33947918  1  0  -0.711388  0  2.044166  0  0  -0.669727  0  2.295872  0  0  -0.694147  0  2.284589  0  0  -0.399525  -0.641693  0  2.304976  0
O  O73  1  0.69638261  0.48507660  0.16047899  1  0  -0.709952  0  2.043677  0  0  -0.667492  0  2.295766  0  0  -0.691955  0  2.28464  0  0  -0.397429  -0.639354  0  2.304802  0
O  O74  1  0.65803362  0.98508101  0.66052118  1  0  -0.71143  0  2.044186  0  0  -0.669758  0  2.295902  0  0  -0.694181  0  2.284625  0  0  -0.399517  -0.641727  0  2.305013  0
O  O75  1  0.30361691  0.51492417  0.83952137  1  0  -0.709959  0  2.043677  0  0  -0.667496  0  2.295759  0  0  -0.691956  0  2.284627  0  0  -0.39743  -0.639358  0  2.304794  0
O  O76  1  0.19282050  0.80825419  0.83950966  1  0  -0.853988  0  2.15466  0  0  -0.819596  0  2.427078  0  0  -0.844722  0  2.415741  0  0  -0.463149  -0.78452  0  2.434091  0
O  O77  1  0.84061124  0.69175373  0.66048318  1  0  -0.854391  0  2.153788  0  0  -0.820046  0  2.427221  0  0  -0.845109  0  2.415724  0  0  -0.463705  -0.784946  0  2.434227  0
O  O78  1  0.80717983  0.19174581  0.16048987  1  0  -0.853974  0  2.154736  0  0  -0.819557  0  2.427149  0  0  -0.844684  0  2.415814  0  0  -0.463106  -0.784481  0  2.434162  0
O  O79  1  0.15938878  0.30824604  0.33951718  1  0  -0.854419  0  2.153745  0  0  -0.820075  0  2.427176  0  0  -0.845141  0  2.415688  0  0  -0.463724  -0.784972  0  2.434181  0
O  O80  1  0.32365554  0.93411119  0.88191744  1  0  -0.660958  0  1.940057  0  0  -0.623657  0  2.173346  0  0  -0.647112  0  2.164941  0  0  -0.358316  -0.600326  0  2.179375  0
O  O81  1  0.13968852  0.56584847  0.61810638  1  0  -0.658895  0  1.942772  0  0  -0.621826  0  2.176849  0  0  -0.645304  0  2.168541  0  0  -0.356926  -0.598413  0  2.182739  0
O  O82  1  0.67634428  0.06588982  0.11808209  1  0  -0.660867  0  1.939981  0  0  -0.623651  0  2.173348  0  0  -0.647108  0  2.164945  0  0  -0.358288  -0.600321  0  2.179375  0
O  O83  1  0.86031100  0.43415230  0.38189398  1  0  -0.658886  0  1.942769  0  0  -0.621818  0  2.176852  0  0  -0.645295  0  2.168543  0  0  -0.356927  -0.598404  0  2.18274  0
O  O84  1  0.27523258  0.01912425  0.65501140  1  0  -0.915488  0  1.859886  0  0  -0.876375  0  2.035883  0  0  -0.894834  0  2.004145  0  0  -0.643259  -0.855103  0  2.063622  0
O  O85  1  0.94936154  0.48088456  0.84500125  1  0  -0.91586  0  1.859124  0  0  -0.876982  0  2.035306  0  0  -0.895424  0  2.003533  0  0  -0.643966  -0.855684  0  2.06308  0
O  O86  1  0.72476745  0.98087552  0.34498896  1  0  -0.91548  0  1.859895  0  0  -0.876366  0  2.035888  0  0  -0.894825  0  2.00415  0  0  -0.643259  -0.855091  0  2.063619  0
O  O87  1  0.05063849  0.51911520  0.15499911  1  0  -0.915859  0  1.859105  0  0  -0.876981  0  2.03528  0  0  -0.89542  0  2.003514  0  0  -0.643953  -0.855684  0  2.063053  0
