# generated using pymatgen
data_CaCuH6C14(NO4)2
_symmetry_space_group_name_H-M   'P 1'
_cell_length_a   4.96710265
_cell_length_b   9.59128734
_cell_length_c   15.32370956
_cell_angle_alpha   90.00004006
_cell_angle_beta   90.00002359
_cell_angle_gamma   104.31741804
_symmetry_Int_Tables_number   1
_chemical_formula_structural   CaCuH6C14(NO4)2
_chemical_formula_sum   'Ca2 Cu2 H12 C28 N4 O16'
_cell_volume   707.36098515
_cell_formula_units_Z   2
loop_
 _symmetry_equiv_pos_site_id
 _symmetry_equiv_pos_as_xyz
  1  'x, y, z'
loop_
 _atom_site_type_symbol
 _atom_site_label
 _atom_site_symmetry_multiplicity
 _atom_site_fract_x
 _atom_site_fract_y
 _atom_site_fract_z
 _atom_site_occupancy
 _atom_site_hle17_ddec_charge
 _atom_site_hle17_ddec_spin_density
 _atom_site_hle17_ddec_sum_bond_order
 _atom_site_hle17_magmom
 _atom_site_hse06_10hf_ddec_charge
 _atom_site_hse06_10hf_ddec_spin_density
 _atom_site_hse06_10hf_ddec_sum_bond_order
 _atom_site_hse06_10hf_magmom
 _atom_site_hse06_ddec_charge
 _atom_site_hse06_ddec_spin_density
 _atom_site_hse06_ddec_sum_bond_order
 _atom_site_hse06_magmom
 _atom_site_pbe_cm5_charge
 _atom_site_pbe_ddec_charge
 _atom_site_pbe_ddec_spin_density
 _atom_site_pbe_ddec_sum_bond_order
 _atom_site_pbe_magmom
Ca  Ca0  1  0.00000050  0.00000108  0.00000000  1  1.569736  0.000292  1.109544  0.0  1.446214  0.000451  1.4701  0.0  1.48941  0.000159  1.423939  0.0  0.881467  1.414372  0.000656  1.502462  0.0
Ca  Ca1  1  0.99999972  0.50000035  0.49999987  1  1.569733  0.000292  1.109555  0.0  1.446216  0.000456  1.470112  0.0  1.489417  0.00016  1.423946  0.0  0.881483  1.414388  0.000655  1.50249  0.0
Cu  Cu2  1  0.49999969  0.00000091  0.50000037  1  0.827853  0.68854  1.841296  0.506  0.799019  0.76868  2.234018  0.613  0.882602  0.830944  2.171515  0.693  0.769476  0.747411  0.725188  2.278161  0.561
Cu  Cu3  1  0.50000004  0.49999944  0.00000014  1  0.82788  0.688529  1.841254  0.506  0.799054  0.768688  2.233991  0.613  0.882632  0.830945  2.17148  0.693  0.769485  0.747445  0.725184  2.278114  0.561
H  H4  1  0.78829831  0.77145987  0.17291266  1  0.117616  6.3e-05  0.928556  0.0  0.124412  -0.000119  0.991931  0.0  0.128394  -0.000121  0.987855  0.0  0.124382  0.121459  -9.9e-05  0.994917  0.0
H  H5  1  0.21170086  0.72854166  0.67291295  1  0.117565  6.3e-05  0.928586  0.0  0.124395  -0.000119  0.991913  0.0  0.128375  -0.000121  0.987839  0.0  0.124385  0.121452  -9.9e-05  0.994892  0.0
H  H6  1  0.21170120  0.22854076  0.82708700  1  0.117593  6.3e-05  0.928534  0.0  0.124393  -0.000119  0.991901  0.0  0.128374  -0.000121  0.987826  0.0  0.124383  0.12145  -9.9e-05  0.994872  0.0
H  H7  1  0.78830116  0.27146005  0.32708736  1  0.117605  6.4e-05  0.928551  0.0  0.124404  -0.00012  0.991919  0.0  0.128386  -0.000121  0.987843  0.0  0.124376  0.121462  -9.9e-05  0.994897  0.0
H  H8  1  0.96063198  0.70610686  0.31998475  1  0.125997  0.000793  0.934025  0.001  0.134926  0.000681  0.993868  0.001  0.138651  0.000473  0.992767  0.001  0.12476  0.132359  0.000852  0.994439  0.001
H  H9  1  0.03937150  0.79389488  0.81998505  1  0.126027  0.000793  0.933977  0.001  0.134954  0.000681  0.993821  0.001  0.13868  0.000474  0.992717  0.001  0.12477  0.132384  0.000852  0.994394  0.001
H  H10  1  0.03937156  0.29389378  0.68001557  1  0.126039  0.000793  0.93398  0.001  0.134962  0.000681  0.993819  0.001  0.138681  0.000473  0.992733  0.001  0.124765  0.132395  0.000852  0.994388  0.001
H  H11  1  0.96063052  0.20610683  0.18001462  1  0.126011  0.000792  0.934002  0.001  0.134935  0.000681  0.99385  0.001  0.138659  0.000473  0.99275  0.001  0.124765  0.132367  0.000852  0.994421  0.001
H  H12  1  0.33192796  0.03185112  0.30972334  1  0.103433  0.000942  0.930419  0.002  0.108722  0.000803  0.996359  0.002  0.11183  0.000594  0.993393  0.001  0.125787  0.106453  0.000961  0.998226  0.002
H  H13  1  0.66807285  0.46815073  0.80972380  1  0.103447  0.000941  0.930373  0.002  0.108738  0.000803  0.996316  0.002  0.111846  0.000593  0.993351  0.001  0.125793  0.106468  0.00096  0.998184  0.002
H  H14  1  0.66807205  0.96815059  0.69027698  1  0.103448  0.000941  0.930381  0.002  0.108737  0.000803  0.996333  0.002  0.111845  0.000594  0.993369  0.001  0.125793  0.106466  0.000961  0.998199  0.002
H  H15  1  0.33192666  0.53184989  0.19027717  1  0.103445  0.000942  0.930412  0.002  0.108736  0.000803  0.996349  0.002  0.111844  0.000594  0.993385  0.001  0.125791  0.106466  0.00096  0.998218  0.002
C  C16  1  0.54643023  0.90499997  0.23032045  1  -0.091803  0.008871  3.676291  0.01  -0.066595  0.003831  3.907896  0.005  -0.077443  0.003446  3.927721  0.004  0.004407  -0.05973  0.004114  3.894291  0.005
C  C17  1  0.45357258  0.59500058  0.73032071  1  -0.091971  0.008861  3.676392  0.01  -0.066777  0.003825  3.907977  0.005  -0.077628  0.003448  3.927803  0.004  0.004326  -0.059917  0.004114  3.894377  0.005
C  C18  1  0.45357129  0.09500066  0.76967922  1  -0.091945  0.008863  3.676471  0.01  -0.066733  0.003817  3.90805  0.005  -0.077584  0.003454  3.927876  0.004  0.004363  -0.059867  0.004114  3.894446  0.005
C  C19  1  0.54642844  0.40499898  0.26967960  1  -0.091833  0.008882  3.676295  0.01  -0.066635  0.003823  3.907899  0.005  -0.077484  0.003449  3.927725  0.004  0.004388  -0.059775  0.004114  3.894299  0.005
C  C20  1  0.74450462  0.84048610  0.38900134  1  0.09956  -0.007564  3.717763  -0.005  0.103454  -0.002043  3.958793  -0.001  0.107786  -0.00342  3.977119  -0.002  0.120173  0.100163  -0.001031  3.947576  0.0
C  C21  1  0.25549446  0.65951465  0.88900161  1  0.09956  -0.007552  3.717797  -0.005  0.103494  -0.002044  3.958747  -0.001  0.107828  -0.003418  3.977071  -0.002  0.120165  0.100204  -0.001031  3.947516  0.0
C  C22  1  0.25549690  0.15951453  0.61099832  1  0.099633  -0.007563  3.717667  -0.005  0.1035  -0.00205  3.958758  -0.001  0.107834  -0.00342  3.977082  -0.002  0.120174  0.100206  -0.00103  3.94755  0.0
C  C23  1  0.74450555  0.34048705  0.11099870  1  0.099531  -0.007581  3.717772  -0.005  0.10346  -0.002046  3.958789  -0.001  0.107793  -0.003422  3.977114  -0.002  0.120205  0.100169  -0.001031  3.947576  0.0
C  C24  1  0.47114825  0.96017169  0.30849408  1  0.129738  -0.009876  3.651858  -0.006  0.092871  -0.00233  3.907055  -0.001  0.10307  -0.003935  3.924386  -0.003  0.06298  0.08651  -0.001082  3.895195  0.0
C  C25  1  0.52885118  0.53983003  0.80849368  1  0.129794  -0.009864  3.651826  -0.006  0.092907  -0.002321  3.907047  -0.001  0.103107  -0.003938  3.924378  -0.003  0.062994  0.086545  -0.001082  3.895183  0.0
C  C26  1  0.52885176  0.03983002  0.69150558  1  0.12982  -0.009865  3.651879  -0.006  0.092934  -0.002311  3.907095  -0.001  0.103136  -0.003948  3.924425  -0.003  0.063027  0.086577  -0.001082  3.895231  0.0
C  C27  1  0.47114883  0.46017167  0.19150598  1  0.129723  -0.009893  3.651904  -0.006  0.092849  -0.00232  3.907111  -0.001  0.103048  -0.00394  3.924443  -0.003  0.06298  0.086492  -0.001082  3.895247  0.0
C  C28  1  0.82255629  0.77813862  0.31427596  1  -0.100083  0.005064  3.680059  0.005  -0.122132  0.001944  3.931518  0.002  -0.128298  0.002017  3.950531  0.002  -0.060686  -0.118393  0.001924  3.919116  0.002
C  C29  1  0.17744267  0.72185774  0.81427689  1  -0.100105  0.005058  3.680085  0.005  -0.122183  0.001946  3.931533  0.002  -0.12835  0.002017  3.950546  0.002  -0.060687  -0.118444  0.001924  3.919125  0.002
C  C30  1  0.17744072  0.22185663  0.68572371  1  -0.100144  0.005064  3.680078  0.005  -0.122173  0.001947  3.931538  0.002  -0.128341  0.002018  3.950546  0.002  -0.060644  -0.11843  0.001924  3.919134  0.002
C  C31  1  0.82255534  0.27813966  0.18572342  1  -0.100085  0.005079  3.680129  0.005  -0.122138  0.001946  3.931572  0.002  -0.128305  0.002019  3.950586  0.002  -0.060682  -0.118398  0.001924  3.919174  0.002
C  C32  1  0.72541232  0.81292965  0.23378305  1  0.014999  -0.011198  3.640816  -0.007  -0.014248  -0.004102  3.893586  -0.002  -0.006549  -0.004762  3.905981  -0.003  -0.042524  -0.019296  -0.003592  3.885136  -0.002
C  C33  1  0.27458445  0.68707088  0.73378268  1  0.015141  -0.011189  3.640753  -0.007  -0.014107  -0.004101  3.893481  -0.002  -0.006406  -0.004765  3.905878  -0.003  -0.042481  -0.019162  -0.003593  3.885026  -0.002
C  C34  1  0.27458467  0.18706989  0.76621727  1  0.01512  -0.011194  3.640792  -0.007  -0.014115  -0.004092  3.893531  -0.002  -0.006412  -0.004772  3.905923  -0.003  -0.042498  -0.019167  -0.003593  3.885068  -0.002
C  C35  1  0.72541506  0.31292975  0.26621699  1  0.015035  -0.011222  3.640804  -0.007  -0.014203  -0.004098  3.893557  -0.002  -0.006504  -0.004767  3.905954  -0.003  -0.042508  -0.01926  -0.003592  3.885111  -0.002
C  C36  1  0.44923356  0.94906104  0.14333890  1  0.679182  0.000375  3.944614  0.0  0.628553  0.000456  4.242975  0.0  0.663328  0.000323  4.235258  0.0  0.223738  0.604957  0.000585  4.247031  0.001
C  C37  1  0.55076555  0.55094045  0.64333851  1  0.679166  0.000381  3.944669  0.0  0.628596  0.000458  4.242928  0.0  0.663373  0.000323  4.235208  0.0  0.22376  0.604998  0.000585  4.246999  0.001
C  C38  1  0.55076645  0.05094066  0.85666076  1  0.679094  0.00038  3.944802  0.0  0.628502  0.00046  4.243099  0.0  0.663278  0.000322  4.235382  0.0  0.223706  0.604898  0.000585  4.247168  0.001
C  C39  1  0.44923396  0.44906017  0.35666181  1  0.679195  0.000377  3.944645  0.0  0.628593  0.00046  4.242967  0.0  0.663369  0.000322  4.235248  0.0  0.223751  0.605006  0.000585  4.247022  0.001
C  C40  1  0.84778676  0.82042503  0.47927453  1  0.637529  -0.007619  3.901878  -0.006  0.587079  -0.001895  4.211404  -0.002  0.624394  -0.001972  4.202276  -0.001  0.227486  0.561735  -0.001682  4.217121  -0.002
C  C41  1  0.15221452  0.67957585  0.97927479  1  0.637393  -0.007621  3.902027  -0.006  0.586972  -0.001895  4.211495  -0.002  0.624286  -0.001972  4.20237  -0.001  0.227463  0.561628  -0.001682  4.217206  -0.002
C  C42  1  0.15221527  0.17957668  0.52072514  1  0.637494  -0.007616  3.901879  -0.006  0.587011  -0.001893  4.211486  -0.002  0.624326  -0.001973  4.202359  -0.001  0.227469  0.561667  -0.001681  4.217216  -0.002
C  C43  1  0.84778701  0.32042478  0.02072553  1  0.637603  -0.007615  3.901797  -0.006  0.587077  -0.001894  4.211425  -0.002  0.624391  -0.001972  4.202297  -0.001  0.227448  0.56173  -0.001682  4.217146  -0.002
N  N44  1  0.57249253  0.92962665  0.38519483  1  -0.303263  0.071727  3.366519  0.092  -0.258908  0.049577  3.661374  0.067  -0.286844  0.041324  3.680132  0.06  -0.351933  -0.242603  0.054  3.650895  0.07
N  N45  1  0.42750806  0.57037302  0.88519508  1  -0.303228  0.07172  3.366444  0.092  -0.258893  0.049574  3.661307  0.067  -0.286828  0.041324  3.680059  0.06  -0.351902  -0.242582  0.054  3.650809  0.07
N  N46  1  0.42751051  0.07037291  0.61480483  1  -0.303303  0.071723  3.366514  0.092  -0.258946  0.049574  3.661403  0.067  -0.286883  0.041328  3.680161  0.06  -0.351963  -0.242643  0.053998  3.650931  0.07
N  N47  1  0.57249346  0.42962761  0.11480523  1  -0.303222  0.071736  3.366484  0.092  -0.258873  0.049574  3.661338  0.067  -0.286807  0.041326  3.680091  0.06  -0.35192  -0.242564  0.053998  3.650847  0.07
O  O48  1  0.75604937  0.88680176  0.54115772  1  -0.56561  0.088956  2.039581  0.123  -0.540165  0.061269  2.324068  0.092  -0.580995  0.047341  2.315477  0.077  -0.311433  -0.513452  0.070058  2.32996  0.1
O  O49  1  0.24394654  0.61319743  0.04115859  1  -0.565545  0.088958  2.039582  0.123  -0.540124  0.061268  2.324054  0.092  -0.580954  0.047341  2.315471  0.077  -0.311404  -0.513411  0.070058  2.329937  0.1
O  O50  1  0.24394763  0.11319778  0.45884194  1  -0.565603  0.088956  2.039538  0.123  -0.540136  0.061269  2.324032  0.092  -0.580968  0.047341  2.31545  0.077  -0.31143  -0.513421  0.070054  2.329927  0.1
O  O51  1  0.75604744  0.38679995  0.95884172  1  -0.565675  0.088957  2.039554  0.123  -0.540181  0.061269  2.32404  0.092  -0.581012  0.047341  2.315452  0.077  -0.311441  -0.513468  0.070057  2.329929  0.1
O  O52  1  0.23206903  0.99632646  0.14113512  1  -0.68873  0.000253  1.916069  0.0  -0.638123  1.7e-05  2.156674  0.0  -0.66539  3.4e-05  2.147839  0.0  -0.350439  -0.618271  1.8e-05  2.161707  0.0
O  O53  1  0.76792958  0.50367395  0.64113539  1  -0.688704  0.000251  1.91607  0.0  -0.638124  1.3e-05  2.156658  0.0  -0.665392  3.7e-05  2.147821  0.0  -0.350416  -0.618271  1.8e-05  2.161699  0.0
O  O54  1  0.76793048  0.00367416  0.85886454  1  -0.688701  0.000251  1.916087  0.0  -0.63811  1.3e-05  2.156684  0.0  -0.665378  3.6e-05  2.147849  0.0  -0.350431  -0.618253  1.8e-05  2.161715  0.0
O  O55  1  0.23206741  0.49632559  0.35886558  1  -0.688741  0.000253  1.916037  0.0  -0.638161  1.3e-05  2.156662  0.0  -0.665429  3.5e-05  2.147825  0.0  -0.35045  -0.618308  1.8e-05  2.161692  0.0
O  O56  1  0.02092594  0.74632245  0.49014911  1  -0.649995  0.012729  1.981161  0.018  -0.610445  0.006667  2.247592  0.011  -0.63789  0.002726  2.23385  0.006  -0.345725  -0.59127  0.010948  2.256509  0.016
O  O57  1  0.97907284  0.75367736  0.99014951  1  -0.649943  0.012729  1.981148  0.018  -0.610406  0.006667  2.247558  0.011  -0.63785  0.002725  2.233818  0.006  -0.345728  -0.591234  0.010948  2.256473  0.016
O  O58  1  0.97907559  0.25367819  0.50985056  1  -0.649978  0.012725  1.98113  0.018  -0.610402  0.006666  2.247566  0.011  -0.637846  0.002725  2.233826  0.006  -0.345703  -0.591229  0.010946  2.256492  0.016
O  O59  1  0.02092667  0.24632326  0.00985080  1  -0.650022  0.012728  1.981115  0.018  -0.610452  0.006667  2.247582  0.011  -0.637895  0.002727  2.23384  0.006  -0.345709  -0.591277  0.010948  2.256501  0.016
O  O60  1  0.59786693  0.93511483  0.07849234  1  -0.707381  0.002071  2.001873  0.003  -0.65203  0.000672  2.255233  0.001  -0.680062  0.000385  2.245205  0.001  -0.37646  -0.631528  0.001109  2.261065  0.001
O  O61  1  0.40213358  0.56488550  0.57849258  1  -0.707399  0.00207  2.001889  0.003  -0.652086  0.000673  2.255239  0.001  -0.680117  0.000383  2.24521  0.001  -0.37653  -0.631587  0.001108  2.261085  0.001
O  O62  1  0.40213711  0.06488688  0.92150798  1  -0.707344  0.002069  2.001961  0.003  -0.65202  0.000673  2.255322  0.001  -0.680051  0.000384  2.245294  0.001  -0.376467  -0.631518  0.001109  2.261161  0.001
O  O63  1  0.59786493  0.43511297  0.42150773  1  -0.707385  0.002071  2.001944  0.003  -0.652046  0.000673  2.255305  0.001  -0.680078  0.000385  2.245276  0.001  -0.376471  -0.631551  0.001108  2.261148  0.001
