# generated using pymatgen
data_Gd2U3H26(C3O4)10
_symmetry_space_group_name_H-M   'P 1'
_cell_length_a   10.57966821
_cell_length_b   11.54708463
_cell_length_c   13.51308698
_cell_angle_alpha   66.75875596
_cell_angle_beta   77.74184954
_cell_angle_gamma   62.95496016
_symmetry_Int_Tables_number   1
_chemical_formula_structural   Gd2U3H26(C3O4)10
_chemical_formula_sum   'Gd2 U3 H26 C30 O40'
_cell_volume   1349.89493676
_cell_formula_units_Z   1
loop_
 _symmetry_equiv_pos_site_id
 _symmetry_equiv_pos_as_xyz
  1  'x, y, z'
loop_
 _atom_site_type_symbol
 _atom_site_label
 _atom_site_symmetry_multiplicity
 _atom_site_fract_x
 _atom_site_fract_y
 _atom_site_fract_z
 _atom_site_occupancy
 _atom_site_pbe_bader_charge
 _atom_site_pbe_bader_spin_density
 _atom_site_pbe_cm5_charge
 _atom_site_pbe_ddec_charge
 _atom_site_pbe_ddec_spin_density
 _atom_site_pbe_ddec_sum_bond_order
 _atom_site_pbe_magmom
Gd  Gd0  1  0.58830561  0.24334025  0.74440215  1  2.2203  0  1.470022  2.141606  0  2.072833  0
Gd  Gd1  1  0.41169153  0.75666071  0.25559758  1  2.220325  0  1.470034  2.14163  0  2.072794  0
U  U2  1  0.00000701  0.49999927  0.50000627  1  2.903147  0  2.156565  2.417847  0  4.704944  0
U  U3  1  0.62059572  0.71162007  0.84205620  1  2.924055  0  2.199398  2.443814  0  4.800452  0
U  U4  1  0.37940142  0.28838090  0.15794353  1  2.92401  0  2.199449  2.443837  0  4.800452  0
H  H5  1  0.09432612  0.36741486  0.96665495  1  0.148124  0  0.123485  0.140289  0  0.996375  0
H  H6  1  0.90567323  0.63258090  0.03334758  1  0.148119  0  0.123538  0.140354  0  0.996327  0
H  H7  1  0.15612540  0.10295494  0.73338425  1  0.100102  0  0.116976  0.129455  0  0.99425  0
H  H8  1  0.84387072  0.89704404  0.26661258  1  0.100215  0  0.116945  0.129456  0  0.994348  0
H  H9  1  0.72720405  0.00515220  0.40723928  1  0.131374  0  0.11926  0.13049  0  0.974866  0
H  H10  1  0.27280116  0.99484564  0.59276240  1  0.131334  0  0.119237  0.13045  0  0.974829  0
H  H11  1  0.84050514  0.00614684  0.85708616  1  0.607595  0  0.335217  0.424301  0  0.86081  0
H  H12  1  0.15949439  0.99385318  0.14291054  1  0.607573  0  0.335195  0.424295  0  0.860815  0
H  H13  1  0.74157653  0.92890206  0.86930876  1  0.648121  0  0.30995  0.409408  0  0.921155  0
H  H14  1  0.25842203  0.07109793  0.13068885  1  0.648121  0  0.309916  0.409357  0  0.921238  0
H  H15  1  0.49724615  0.51848074  0.78287054  1  0.660635  0  0.31096  0.412498  0  0.910475  0
H  H16  1  0.50275276  0.48151607  0.21713098  1  0.660607  0  0.310984  0.412526  0  0.910425  0
H  H17  1  0.49541011  0.40403418  0.89643993  1  0.653163  0  0.316458  0.430502  0  0.88151  0
H  H18  1  0.50458932  0.59596366  0.10356118  1  0.65317  0  0.316497  0.430569  0  0.881415  0
H  H19  1  0.37771830  0.46859975  0.57552643  1  0.629437  0  0.319123  0.417346  0  0.894172  0
H  H20  1  0.62228462  0.53140119  0.42447462  1  0.629104  0  0.319123  0.417338  0  0.894187  0
H  H21  1  0.27308188  0.41035325  0.65331331  1  0.662584  0  0.318033  0.431767  0  0.873698  0
H  H22  1  0.72691925  0.58965175  0.34668968  1  0.662598  0  0.318052  0.431748  0  0.873713  0
H  H23  1  0.55619107  0.52467698  0.59009256  1  0.657185  0  0.306756  0.393052  0  0.948393  0
H  H24  1  0.44380703  0.47532397  0.40990777  1  0.65702  0  0.306774  0.393086  0  0.948346  0
H  H25  1  0.71991620  0.41642354  0.59611258  1  0.65965  0  0.309695  0.395002  0  0.945615  0
H  H26  1  0.28008109  0.58358156  0.40388654  1  0.6597  0  0.309707  0.395013  0  0.94559  0
H  H27  1  0.65221027  0.21204449  0.53132918  1  0.680264  0  0.296532  0.393879  0  0.947274  0
H  H28  1  0.34778332  0.78796475  0.46866846  1  0.680428  0  0.296546  0.393864  0  0.94728  0
H  H29  1  0.71410817  0.06109811  0.62108432  1  0.627567  0  0.332621  0.428069  0  0.86004  0
H  H30  1  0.28588966  0.93890812  0.37891066  1  0.627525  0  0.332637  0.428138  0  0.859966  0
C  C31  1  0.99350584  0.33978177  0.86075355  1  0.058203  0  -0.000886  -0.038178  0  3.943578  0
C  C32  1  0.00649077  0.66021813  0.13924735  1  0.058267  0  -0.000865  -0.038203  0  3.943668  0
C  C33  1  0.10929053  0.30950517  0.91478022  1  -0.066956  0  -0.057666  -0.081418  0  3.890463  0
C  C34  1  0.89070831  0.69048960  0.08522049  1  -0.06708  0  -0.057738  -0.081454  0  3.890672  0
C  C35  1  0.24439968  0.21218435  0.89861176  1  0.00448  0  -0.005438  -0.087035  0  3.962796  0
C  C36  1  0.75560304  0.78781050  0.10138610  1  0.004656  0  -0.005458  -0.087066  0  3.962997  0
C  C37  1  0.26151939  0.14041985  0.82957814  1  -0.019491  0  0.012593  -0.016897  0  3.905049  0
C  C38  1  0.73848200  0.85957814  0.17041744  1  -0.019568  0  0.01258  -0.01695  0  3.905059  0
C  C39  1  0.14238680  0.16172848  0.78402875  1  0.009768  0  -0.06989  -0.123088  0  3.926732  0
C  C40  1  0.85760974  0.83826933  0.21597356  1  0.009649  0  -0.06988  -0.123124  0  3.926924  0
C  C41  1  0.00885938  0.26311059  0.79648225  1  -0.026477  0  0.017773  -0.020189  0  3.910327  0
C  C42  1  0.99113591  0.73689242  0.20351786  1  -0.026427  0  0.017772  -0.020159  0  3.910389  0
C  C43  1  0.62664642  0.00408750  0.44747177  1  -0.005923  0  -0.064541  -0.107162  0  3.919453  0
C  C44  1  0.37335784  0.99591041  0.55252709  1  -0.005784  0  -0.064486  -0.107054  0  3.919342  0
C  C45  1  0.62073397  0.87603993  0.50578525  1  -0.046548  0  0.007492  -0.011367  0  3.914077  0
C  C46  1  0.37926888  0.12395899  0.49421424  1  -0.046626  0  0.00743  -0.011465  0  3.914135  0
C  C47  1  0.49229715  0.87219076  0.55917486  1  0.009572  0  0.007041  -0.060176  0  3.961331  0
C  C48  1  0.50770851  0.12780605  0.44082709  1  0.009654  0  0.007061  -0.060156  0  3.961333  0
C  C49  1  0.85933727  0.46027071  0.86536131  1  1.519939  0  0.21173  0.571091  0  4.192638  0
C  C50  1  0.14066260  0.53972610  0.13464007  1  1.52  0  0.211747  0.571123  0  4.192685  0
C  C51  1  0.36199295  0.18968934  0.95853661  1  1.570027  0  0.255193  0.653782  0  4.115789  0
C  C52  1  0.63800553  0.81030856  0.04146242  1  1.56974  0  0.255215  0.653753  0  4.115582  0
C  C53  1  0.40271692  0.04275008  0.79866545  1  1.6185  0  0.246453  0.653479  0  4.155961  0
C  C54  1  0.59727743  0.95725307  0.20132884  1  1.618579  0  0.246502  0.653522  0  4.155677  0
C  C55  1  0.88934710  0.28907171  0.73533573  1  1.631486  0  0.257509  0.671541  0  4.100288  0
C  C56  1  0.11065382  0.71092722  0.26466332  1  1.63152  0  0.257535  0.671597  0  4.10019  0
C  C57  1  0.47636417  0.73942255  0.62436192  1  1.597493  0  0.25033  0.636186  0  4.141043  0
C  C58  1  0.52363771  0.26057636  0.37563772  1  1.597481  0  0.250355  0.636217  0  4.141202  0
C  C59  1  0.75161520  0.74734052  0.50969576  1  1.556553  0  0.210784  0.567487  0  4.204471  0
C  C60  1  0.24839193  0.25265726  0.49030860  1  1.556913  0  0.210767  0.567504  0  4.204484  0
O  O61  1  0.53210062  0.63026128  0.96089207  1  -0.882398  0  -0.743473  -0.703312  0  1.858248  0
O  O62  1  0.46789503  0.36973862  0.03910898  1  -0.882338  0  -0.743473  -0.703269  0  1.85827  0
O  O63  1  0.71143372  0.79467613  0.72791034  1  -0.858202  0  -0.757181  -0.690366  0  1.817039  0
O  O64  1  0.28856667  0.20532168  0.27209211  1  -0.858271  0  -0.757234  -0.69043  0  1.817022  0
O  O65  1  0.08520580  0.48800188  0.60957257  1  -0.886682  0  -0.750024  -0.713563  0  1.858815  0
O  O66  1  0.91480950  0.51199666  0.39044285  1  -0.886423  0  -0.749994  -0.713414  0  1.858783  0
O  O67  1  0.84887873  0.53606785  0.91764287  1  -1.13098  0  -0.345366  -0.577658  0  2.165948  0
O  O68  1  0.15111870  0.46392795  0.08235773  1  -1.131047  0  -0.345381  -0.577686  0  2.165979  0
O  O69  1  0.75490822  0.49328200  0.81148645  1  -1.116977  0  -0.333055  -0.562109  0  2.272253  0
O  O70  1  0.24509285  0.50672104  0.18851274  1  -1.11693  0  -0.333038  -0.562087  0  2.272221  0
O  O71  1  0.80630039  0.23086431  0.78289713  1  -1.185664  0  -0.366207  -0.638387  0  2.241135  0
O  O72  1  0.19369588  0.76913882  0.21709835  1  -1.185659  0  -0.36623  -0.638409  0  2.2411  0
O  O73  1  0.88394276  0.36182399  0.63499280  1  -1.161214  0  -0.335834  -0.596355  0  2.375689  0
O  O74  1  0.11605778  0.63817799  0.36500755  1  -1.161227  0  -0.335841  -0.596394  0  2.375611  0
O  O75  1  0.41457922  0.92039960  0.81834891  1  -1.158685  0  -0.369843  -0.625985  0  2.272501  0
O  O76  1  0.58541996  0.07960363  0.18164238  1  -1.158725  0  -0.369835  -0.625956  0  2.272476  0
O  O77  1  0.49732999  0.08581304  0.75231025  1  -1.183408  0  -0.36419  -0.653102  0  2.339642  0
O  O78  1  0.50266288  0.91418908  0.24768386  1  -1.18348  0  -0.364228  -0.653109  0  2.339434  0
O  O79  1  0.48364632  0.17479054  0.91667633  1  -1.178468  0  -0.361223  -0.621928  0  2.30702  0
O  O80  1  0.51635015  0.82520529  0.08332293  1  -1.178453  0  -0.361258  -0.6219  0  2.306811  0
O  O81  1  0.32785919  0.18885659  0.05668789  1  -1.173209  0  -0.365104  -0.63524  0  2.358357  0
O  O82  1  0.67213707  0.81114648  0.94330982  1  -1.17299  0  -0.365125  -0.635234  0  2.358432  0
O  O83  1  0.49765522  0.68879195  0.72570953  1  -1.164479  0  -0.351138  -0.611698  0  2.320454  0
O  O84  1  0.50234711  0.31120593  0.27429038  1  -1.164476  0  -0.351145  -0.611706  0  2.320516  0
O  O85  1  0.43429406  0.68682914  0.57923050  1  -1.17384  0  -0.27936  -0.515899  0  2.207063  0
O  O86  1  0.56570166  0.31317284  0.42076987  1  -1.173802  0  -0.279359  -0.515896  0  2.207169  0
O  O87  1  0.74820135  0.62884783  0.55781371  1  -1.138329  0  -0.324263  -0.57752  0  2.286469  0
O  O88  1  0.25180437  0.37115096  0.44219129  1  -1.138218  0  -0.324292  -0.57757  0  2.286389  0
O  O89  1  0.86766203  0.75448464  0.46309562  1  -1.131241  0  -0.336744  -0.577243  0  2.207031  0
O  O90  1  0.13234516  0.24551515  0.53691031  1  -1.131608  0  -0.336717  -0.577223  0  2.207103  0
O  O91  1  0.76274142  0.01080878  0.82604862  1  -1.222028  0  -0.624897  -0.83569  0  2.056483  0
O  O92  1  0.23725951  0.98919020  0.17394819  1  -1.221983  0  -0.624842  -0.835645  0  2.056577  0
O  O93  1  0.49958597  0.42432157  0.81780194  1  -1.289703  0  -0.642538  -0.881507  0  2.03525  0
O  O94  1  0.50041346  0.57567628  0.18219917  1  -1.28971  0  -0.642592  -0.881605  0  2.035158  0
O  O95  1  0.37302904  0.39710829  0.64472793  1  -1.267691  0  -0.629474  -0.859481  0  2.021917  0
O  O96  1  0.62697440  0.60289367  0.35527346  1  -1.267376  0  -0.629479  -0.859464  0  2.02191  0
O  O97  1  0.62138284  0.43015913  0.58833052  1  -1.29621  0  -0.620692  -0.822907  0  2.063982  0
O  O98  1  0.37861586  0.56984492  0.41166946  1  -1.296103  0  -0.620727  -0.822945  0  2.063916  0
O  O99  1  0.70261229  0.15615384  0.60131507  1  -1.273216  0  -0.640639  -0.838584  0  2.019986  0
O  O100  1  0.29738552  0.84385229  0.39868364  1  -1.273307  0  -0.640659  -0.838651  0  2.019904  0
