# generated using pymatgen
data_Cu3H18(C14N3)2
_symmetry_space_group_name_H-M   'P 1'
_cell_length_a   29.40935978
_cell_length_b   32.66650930
_cell_length_c   32.73248752
_cell_angle_alpha   88.56825545
_cell_angle_beta   88.95788563
_cell_angle_gamma   89.84094607
_symmetry_Int_Tables_number   1
_chemical_formula_structural   Cu3H18(C14N3)2
_chemical_formula_sum   'Cu12 H72 C112 N24'
_cell_volume   31431.03563794
_cell_formula_units_Z   4
loop_
 _symmetry_equiv_pos_site_id
 _symmetry_equiv_pos_as_xyz
  1  'x, y, z'
loop_
 _atom_site_type_symbol
 _atom_site_label
 _atom_site_symmetry_multiplicity
 _atom_site_fract_x
 _atom_site_fract_y
 _atom_site_fract_z
 _atom_site_occupancy
 _atom_site_pbe_bader_charge
 _atom_site_pbe_bader_spin_density
 _atom_site_pbe_cm5_charge
 _atom_site_pbe_ddec_charge
 _atom_site_pbe_ddec_spin_density
 _atom_site_pbe_ddec_sum_bond_order
 _atom_site_pbe_magmom
Cu  Cu0  1  0.17291116  0.91092799  0.87901889  1  0.538213  0.00028  0.481975  0.201937  0.000377  2.125014  0.0
Cu  Cu1  1  0.10956687  0.85160943  0.83349855  1  0.544846  0.000377  0.485801  0.207429  0.000563  2.117817  0.0
Cu  Cu2  1  0.11775328  0.84452665  0.93061927  1  0.543006  0.000365  0.485568  0.205266  0.000543  2.119984  0.0
Cu  Cu3  1  0.65363559  0.58640929  0.10701565  1  0.542653  0.000349  0.485194  0.205014  0.000514  2.117605  0.0
Cu  Cu4  1  0.59817563  0.63764292  0.17358229  1  0.540985  0.000338  0.484449  0.204514  0.000488  2.115054  0.0
Cu  Cu5  1  0.62706697  0.67801464  0.08838438  1  0.540559  0.000363  0.4844  0.201954  0.000512  2.130308  0.0
Cu  Cu6  1  0.33310276  0.08512352  0.37991156  1  0.543669  0.000407  0.484654  0.205047  0.000608  2.110394  0.0
Cu  Cu7  1  0.42040777  0.12851498  0.33759658  1  0.541546  0.000275  0.482987  0.203997  0.000397  2.108638  0.0
Cu  Cu8  1  0.36409666  0.17303855  0.40650957  1  0.541411  0.000239  0.485171  0.203042  0.000318  2.127361  0.0
Cu  Cu9  1  0.84714169  0.42477378  0.61740466  1  0.540904  0.00035  0.483249  0.20499  0.000514  2.110396  0.0
Cu  Cu10  1  0.90597523  0.36019055  0.66905226  1  0.543884  0.000328  0.484733  0.203471  0.000479  2.118241  0.0
Cu  Cu11  1  0.87008481  0.33827671  0.58191384  1  0.541193  0.000395  0.484216  0.203177  0.000559  2.124841  0.0
H  H12  1  0.67664344  0.47849299  0.35000565  1  0.042757  -0.001991  0.097677  0.09992  -0.001045  1.004871  0.002
H  H13  1  0.58426632  0.41558552  0.27248887  1  0.034692  -0.001843  0.097531  0.098229  -0.001004  1.014233  0.002
H  H14  1  0.70856273  0.44226923  0.41036446  1  0.052136  -0.001825  0.097584  0.098092  -0.001176  1.014437  0.002
H  H15  1  0.66016331  0.32163341  0.44542071  1  0.054933  -0.001763  0.097415  0.099444  -0.001056  1.004672  0.002
H  H16  1  0.59925495  0.28922496  0.40553807  1  0.041382  -0.001568  0.09723  0.099059  -0.00084  1.011377  0.002
H  H17  1  0.55564538  0.34669587  0.29295362  1  0.05848  -0.001691  0.098176  0.101529  -0.001002  1.001918  0.002
H  H18  1  0.17448602  0.01915170  0.65706832  1  0.048554  -0.001569  0.097698  0.098898  -0.000918  1.012979  0.002
H  H19  1  0.08232485  0.08837214  0.73265440  1  0.063535  -0.001669  0.097772  0.099763  -0.001031  1.005175  0.002
H  H20  1  0.19607380  0.04539677  0.58783819  1  0.064198  -0.001875  0.097486  0.099601  -0.001141  1.005728  0.002
H  H21  1  0.13934236  0.15896996  0.54189529  1  0.061832  -0.001492  0.097444  0.098929  -0.000916  1.01318  0.002
H  H22  1  0.08107970  0.19534767  0.58277165  1  0.041141  -0.001682  0.097315  0.09839  -0.000872  1.014164  0.002
H  H23  1  0.04653511  0.15184448  0.70483258  1  0.059993  -0.001774  0.097588  0.099683  -0.001111  1.005465  0.002
H  H24  1  0.82236492  0.52956022  0.82995945  1  0.051517  -0.001448  0.097632  0.099422  -0.000811  1.011235  0.002
H  H25  1  0.92590341  0.59994541  0.76552154  1  0.047063  -0.001824  0.098142  0.100631  -0.001024  1.00346  0.002
H  H26  1  0.78951708  0.55490114  0.89530501  1  0.050606  -0.002054  0.09753  0.099917  -0.001196  1.00482  0.002
H  H27  1  0.84364885  0.66367892  0.94815406  1  0.039683  -0.001701  0.097186  0.098216  -0.000862  1.013449  0.002
H  H28  1  0.90794727  0.70003265  0.91433832  1  0.065269  -0.001602  0.097116  0.097653  -0.001116  1.015037  0.002
H  H29  1  0.95934022  0.66059075  0.79747605  1  0.044326  -0.00196  0.096757  0.0973  -0.00117  1.007364  0.002
H  H30  1  0.29372748  0.94725981  0.19412195  1  0.060144  -0.001867  0.097953  0.099522  -0.001123  1.005292  0.002
H  H31  1  0.42907703  0.91056829  0.22795283  1  0.06977  -0.001382  0.097498  0.099629  -0.000915  1.011775  0.002
H  H32  1  0.25836301  0.91845051  0.13314435  1  0.06213  -0.001715  0.098144  0.101153  -0.00103  1.003631  0.002
H  H33  1  0.33566353  0.83793731  0.05595552  1  0.036589  -0.001623  0.097767  0.099586  -0.000797  1.011589  0.002
H  H34  1  0.41082074  0.81231246  0.07826722  1  0.057185  -0.001769  0.097917  0.099701  -0.001137  1.003711  0.002
H  H35  1  0.46901544  0.85575221  0.18906803  1  0.051091  -0.001578  0.097612  0.100256  -0.00086  1.010352  0.002
H  H36  1  0.17683384  0.98564243  0.81315330  1  0.091331  3.7e-05  0.120691  0.112535  5.3e-05  0.989594  0.0
H  H37  1  0.11307048  0.89139421  0.74329065  1  0.10425  1.7e-05  0.120367  0.11365  1.5e-05  0.987223  0.0
H  H38  1  0.17112055  0.84408929  0.01427303  1  0.095224  4.2e-05  0.120456  0.112326  5.8e-05  0.989362  0.0
H  H39  1  0.25663471  0.92314243  0.93770686  1  0.075197  1.5e-05  0.120884  0.113953  1.1e-05  0.986791  0.0
H  H40  1  0.04090283  0.77995065  0.81867813  1  0.112062  1.9e-05  0.120026  0.109796  4.8e-05  0.992221  0.0
H  H41  1  0.03769870  0.78115365  0.95105743  1  0.067419  2.2e-05  0.120184  0.112267  1e-06  0.988283  0.0
H  H42  1  0.65343409  0.49895767  0.15106816  1  0.100496  1.5e-05  0.120013  0.112176  1.2e-05  0.987972  0.0
H  H43  1  0.59595393  0.57264594  0.24741850  1  0.082508  4.8e-05  0.120171  0.111242  6.3e-05  0.990782  0.0
H  H44  1  0.69530765  0.69919317  0.01425689  1  0.115856  7e-06  0.120474  0.112611  6e-06  0.988153  0.0
H  H45  1  0.72387593  0.57006159  0.03394803  1  0.087982  4.3e-05  0.120429  0.11151  5.8e-05  0.989834  0.0
H  H46  1  0.53383262  0.70787484  0.20906340  1  0.062956  1.8e-05  0.120646  0.113042  8e-06  0.988134  0.0
H  H47  1  0.56317761  0.75624951  0.08698936  1  0.093646  4.5e-05  0.120082  0.11089  6.3e-05  0.991343  0.0
H  H48  1  0.32747475  0.00534905  0.32711322  1  0.07599  5e-05  0.119881  0.111198  6.3e-05  0.992045  0.0
H  H49  1  0.44911426  0.06108795  0.27427750  1  0.097972  1.3e-05  0.120131  0.112422  1e-05  0.987826  0.0
H  H50  1  0.28685711  0.19349664  0.47146592  1  0.098365  9e-06  0.120653  0.113319  6e-06  0.986841  0.0
H  H51  1  0.25278203  0.06801657  0.44517145  1  0.090664  4.5e-05  0.12041  0.111818  6e-05  0.990593  0.0
H  H52  1  0.50099212  0.19275944  0.32151954  1  0.075782  4.7e-05  0.120092  0.111547  5.7e-05  0.99148  0.0
H  H53  1  0.42837283  0.24854251  0.42219307  1  0.076  1.4e-05  0.12039  0.113107  1.2e-05  0.986051  0.0
H  H54  1  0.84295110  0.49783667  0.67903548  1  0.110013  3.8e-05  0.119788  0.110879  5.9e-05  0.991305  0.0
H  H55  1  0.90603227  0.40408823  0.75495098  1  0.089459  1.7e-05  0.1203  0.113364  1.3e-05  0.987653  0.0
H  H56  1  0.80130472  0.33646349  0.50823665  1  0.126683  1.6e-05  0.120337  0.111449  4.1e-05  0.99113  0.0
H  H57  1  0.78254855  0.46112605  0.54760444  1  0.06666  2.4e-05  0.120118  0.113072  7e-06  0.987555  0.0
H  H58  1  0.97923944  0.28967992  0.68281934  1  0.102455  4.1e-05  0.120409  0.110691  5.8e-05  0.991242  0.0
H  H59  1  0.93170805  0.26099294  0.56233630  1  0.090292  1.1e-05  0.12046  0.112856  4e-06  0.9879  0.0
H  H60  1  0.12494776  0.03135047  0.76267538  1  0.036023  0.000314  0.096737  0.096895  0.000278  1.000914  0.001
H  H61  1  0.14282572  0.96644375  0.69790565  1  0.053078  -0.000546  0.099457  0.100196  -0.000467  0.996666  0.0
H  H62  1  0.63694759  0.51624967  0.29376719  1  0.043776  0.000447  0.097106  0.098504  0.000381  0.999123  0.001
H  H63  1  0.62496710  0.45510965  0.22490559  1  0.072502  -0.00069  0.099437  0.099615  -0.000597  0.996845  0.0
H  H64  1  0.32479061  0.97239164  0.25565778  1  0.024621  0.000281  0.096165  0.096659  0.000281  1.001438  0.001
H  H65  1  0.42851515  0.98079776  0.24618343  1  0.050928  -0.000698  0.099694  0.100163  -0.000625  0.996591  0.0
H  H66  1  0.88471386  0.54472756  0.73085105  1  0.069069  0.000625  0.096921  0.097267  0.000501  0.999966  0.001
H  H67  1  0.86954691  0.47707131  0.79658025  1  0.039133  -0.000606  0.099812  0.100966  -0.000565  0.9949  0.0
H  H68  1  0.22139719  0.87981947  0.07383159  1  0.023249  0.000791  0.098125  0.101305  0.000669  0.995812  0.001
H  H69  1  0.29834886  0.88742689  0.00930558  1  0.074047  -0.000856  0.09948  0.099638  -0.00081  0.995501  0.0
H  H70  1  0.72391847  0.34703529  0.47853420  1  0.021017  -0.000174  0.095282  0.094233  -0.000111  1.00518  0.0
H  H71  1  0.73849776  0.44020140  0.47223826  1  0.055798  -0.000254  0.0993  0.099725  -7.9e-05  0.998497  0.0
H  H72  1  0.76261610  0.57564817  0.96282761  1  0.078159  0.000294  0.096585  0.097975  0.000248  1.000326  0.001
H  H73  1  0.76968791  0.66923354  0.96870204  1  0.074257  -0.00074  0.099089  0.098658  -0.00063  0.999262  0.0
H  H74  1  0.21469005  0.06895243  0.51834065  1  0.062656  0.000285  0.096893  0.098419  0.000258  0.998616  0.0
H  H75  1  0.21204627  0.16309266  0.51543228  1  0.03525  -0.000771  0.099221  0.098587  -0.000703  0.99891  0.0
H  H76  1  0.99010040  0.72032479  0.82503436  1  0.060936  -0.000131  0.09573  0.095841  -9.2e-05  1.002466  0.0
H  H77  1  0.97460204  0.72873371  0.91768363  1  0.054414  -0.000489  0.099206  0.098519  -0.000318  1.001061  0.0
H  H78  1  0.53306985  0.27289999  0.31255448  1  0.068385  0.00074  0.097722  0.100519  0.000616  0.99665  0.001
H  H79  1  0.51766796  0.27921647  0.40526780  1  0.067939  -0.000922  0.099079  0.098838  -0.000888  0.997616  0.0
H  H80  1  0.01864814  0.21888629  0.68022627  1  0.043191  0.000294  0.09693  0.098998  0.000273  0.998585  0.001
H  H81  1  0.00701431  0.21578055  0.58716007  1  0.078177  -0.000739  0.09951  0.099001  -0.000648  0.998667  0.0
H  H82  1  0.48503385  0.78995463  0.09639627  1  0.059117  0.000301  0.096416  0.096245  0.000272  1.001434  0.0
H  H83  1  0.49342342  0.78559622  0.18987689  1  0.050592  -0.000701  0.099856  0.101119  -0.000617  0.995376  0.0
C  C84  1  0.65810656  0.41722200  0.37100233  1  -0.011548  0.035016  -0.012876  0.078781  0.034788  4.078973  0.033
C  C85  1  0.65652756  0.45141511  0.34355363  1  -0.035089  -0.205569  -0.090187  -0.182608  -0.206268  3.898481  -0.121
C  C86  1  0.63090226  0.45086817  0.30780179  1  -0.051347  0.036408  -0.019888  0.107324  0.034454  4.107976  0.036
C  C87  1  0.60531246  0.41586165  0.29960157  1  -0.011281  -0.212342  -0.090225  -0.179859  -0.21303  3.893455  -0.125
C  C88  1  0.60415370  0.38157207  0.32687852  1  0.020166  0.034818  -0.013321  0.078226  0.034448  4.081709  0.032
C  C89  1  0.63070655  0.38234111  0.36296371  1  0.007405  -0.019043  -0.00138  -0.002206  -0.014501  3.882685  -0.015
C  C90  1  0.68647174  0.41612548  0.40545240  1  -0.042559  -0.214463  -0.089455  -0.177044  -0.215219  3.884792  -0.126
C  C91  1  0.68831878  0.38155252  0.43187334  1  0.009543  0.035076  -0.020344  0.106139  0.032808  4.108553  0.035
C  C92  1  0.65956556  0.34832443  0.42463647  1  -0.092108  -0.191919  -0.090023  -0.182209  -0.192136  3.899804  -0.113
C  C93  1  0.63001529  0.34815507  0.39099373  1  -0.024471  0.034214  -0.013566  0.078822  0.034055  4.082707  0.032
C  C94  1  0.60023550  0.31519121  0.38389355  1  -0.005572  -0.199644  -0.090868  -0.183912  -0.200476  3.896824  -0.118
C  C95  1  0.57275334  0.31480146  0.34926623  1  -0.012099  0.036519  -0.018829  0.109482  0.034495  4.101342  0.035
C  C96  1  0.57635349  0.34709958  0.32030869  1  -0.053817  -0.202013  -0.089754  -0.182032  -0.202657  3.895813  -0.119
C  C97  1  0.14804524  0.07461152  0.62879311  1  0.058027  0.034677  -0.013757  0.078841  0.034311  4.083688  0.032
C  C98  1  0.15158337  0.04514897  0.66102331  1  -0.086296  -0.20477  -0.089946  -0.179791  -0.204922  3.89235  -0.121
C  C99  1  0.12812176  0.04976372  0.69839427  1  0.026598  0.035733  -0.019953  0.107401  0.033181  4.106181  0.035
C  C100  1  0.10053719  0.08447246  0.70362034  1  -0.055232  -0.195722  -0.089093  -0.180384  -0.196079  3.898784  -0.115
C  C101  1  0.09469819  0.11413563  0.67187732  1  -0.023214  0.034022  -0.01339  0.080223  0.034015  4.084538  0.032
C  C102  1  0.11904426  0.10928032  0.63415872  1  -0.022155  -0.018823  -0.001904  -0.006333  -0.014271  3.888196  -0.015
C  C103  1  0.17340744  0.07160764  0.59179445  1  -0.108502  -0.204107  -0.090155  -0.182635  -0.204277  3.898548  -0.12
C  C104  1  0.17204063  0.10244634  0.56116986  1  0.00044  0.036555  -0.019574  0.109529  0.034227  4.105919  0.036
C  C105  1  0.14215086  0.13564946  0.56618943  1  -0.072146  -0.21399  -0.090747  -0.181854  -0.214311  3.891814  -0.126
C  C106  1  0.11493545  0.13944994  0.60202517  1  -0.017045  0.035075  -0.013026  0.079075  0.034642  4.080733  0.033
C  C107  1  0.08415855  0.17234702  0.60734096  1  -0.026087  -0.209297  -0.090445  -0.18062  -0.210119  3.89128  -0.124
C  C108  1  0.05877091  0.17666092  0.64378954  1  0.023322  0.035968  -0.01937  0.1096  0.033673  4.105549  0.035
C  C109  1  0.06541801  0.14829536  0.67608695  1  -0.071695  -0.199964  -0.090653  -0.183874  -0.200309  3.900476  -0.118
C  C110  1  0.84450196  0.58393833  0.86057144  1  -0.023285  0.034141  -0.01299  0.080169  0.034128  4.08044  0.032
C  C111  1  0.84576270  0.55546968  0.82861393  1  -0.032603  -0.196294  -0.090121  -0.182059  -0.196846  3.891763  -0.116
C  C112  1  0.87496907  0.56094501  0.79451670  1  -0.031455  0.035508  -0.019514  0.108748  0.033284  4.103733  0.034
C  C113  1  0.90338312  0.59540808  0.79213899  1  -0.028836  -0.19612  -0.089939  -0.18202  -0.196947  3.901737  -0.116
C  C114  1  0.90506370  0.62352968  0.82419262  1  -0.00467  0.0339  -0.013905  0.080259  0.033872  4.089141  0.031
C  C115  1  0.87499878  0.61791458  0.85858208  1  -0.035743  -0.019023  -0.001752  -0.005962  -0.014461  3.88948  -0.015
C  C116  1  0.81345456  0.58043762  0.89405635  1  -0.067347  -0.204144  -0.090992  -0.184081  -0.204688  3.898417  -0.12
C  C117  1  0.81143724  0.60981006  0.92466384  1  0.028512  0.03678  -0.019174  0.109909  0.034184  4.104265  0.036
C  C118  1  0.84311429  0.64198323  0.92334080  1  -0.06709  -0.215146  -0.090895  -0.181409  -0.215441  3.89132  -0.127
C  C119  1  0.87532067  0.64655628  0.89090547  1  0.033846  0.035379  -0.01261  0.07899  0.034946  4.087025  0.033
C  C120  1  0.90777435  0.67846170  0.88941318  1  -0.098047  -0.220661  -0.090158  -0.178358  -0.220991  3.884422  -0.13
C  C121  1  0.93881322  0.68331253  0.85644070  1  -0.053345  0.035216  -0.01952  0.108137  0.03311  4.112321  0.035
C  C122  1  0.93606339  0.65659126  0.82366119  1  -0.016407  -0.195129  -0.08987  -0.181766  -0.195952  3.903151  -0.115
C  C123  1  0.32592893  0.90357913  0.15420316  1  -0.032936  0.034323  -0.013624  0.079337  0.034043  4.087605  0.032
C  C124  1  0.32429630  0.92904793  0.18847527  1  -0.033284  -0.20157  -0.089782  -0.181652  -0.202386  3.903007  -0.119
C  C125  1  0.36187417  0.93339558  0.21383448  1  -0.023662  0.036146  -0.019353  0.108606  0.033939  4.105668  0.036
C  C126  1  0.40062593  0.90900455  0.20708545  1  -0.065051  -0.211764  -0.091733  -0.183424  -0.212291  3.888061  -0.125
C  C127  1  0.40329920  0.88170458  0.17411195  1  0.021648  0.035211  -0.011505  0.079365  0.034822  4.074381  0.033
C  C128  1  0.36632144  0.88053886  0.14635141  1  0.017438  -0.018467  -0.001786  -0.002715  -0.013918  3.883009  -0.015
C  C129  1  0.28937966  0.90109335  0.12685693  1  -0.097054  -0.203611  -0.089348  -0.182202  -0.204123  3.900669  -0.12
C  C130  1  0.29317549  0.87882674  0.09085565  1  0.011288  0.036466  -0.018897  0.110582  0.034341  4.104579  0.035
C  C131  1  0.33311592  0.85653206  0.08315786  1  -0.017023  -0.197854  -0.090409  -0.184336  -0.198717  3.900293  -0.117
C  C132  1  0.36955184  0.85614616  0.11083960  1  -0.023001  0.034038  -0.013699  0.080372  0.033953  4.084351  0.032
C  C133  1  0.40864469  0.83160060  0.10501983  1  -0.049072  -0.199757  -0.089461  -0.180327  -0.200349  3.901133  -0.118
C  C134  1  0.44334448  0.82958656  0.13389431  1  0.002869  0.035951  -0.018975  0.10877  0.033719  4.106845  0.035
C  C135  1  0.44105802  0.85543973  0.16758413  1  -0.068435  -0.209305  -0.092087  -0.185087  -0.209859  3.889598  -0.123
C  C136  1  0.16067751  0.95833152  0.80208286  1  0.441771  0.003222  0.006522  -0.055733  0.003152  3.948303  0.002
C  C137  1  0.14374954  0.95082707  0.76304382  1  -0.025395  -0.000973  -0.03989  0.01443  -0.000859  4.123184  -0.001
C  C138  1  0.12904469  0.90992973  0.76603770  1  0.392826  0.003138  0.004948  -0.059381  0.003048  3.954382  0.002
C  C139  1  0.18612980  0.86406213  0.99072873  1  0.398188  0.002514  0.006205  -0.055838  0.002459  3.948291  0.002
C  C140  1  0.22846884  0.88396803  0.98987007  1  0.023238  -0.000829  -0.040288  0.014887  -0.000727  4.130455  -0.001
C  C141  1  0.23021171  0.90374137  0.95123971  1  0.394269  0.002503  0.005743  -0.059674  0.002432  3.957049  0.002
C  C142  1  0.04588437  0.78492448  0.85092904  1  0.375163  0.004791  0.0076  -0.049804  0.004649  3.939478  0.003
C  C143  1  0.02399799  0.76666745  0.88536530  1  0.067312  -0.001551  -0.039957  0.013702  -0.001351  4.132827  -0.002
C  C144  1  0.04408306  0.78588098  0.91850249  1  0.40927  0.004917  0.00624  -0.05914  0.004744  3.955296  0.003
C  C145  1  0.63927513  0.52270377  0.17016035  1  0.40306  0.003404  0.004986  -0.05956  0.003307  3.956734  0.002
C  C146  1  0.62546751  0.52049544  0.21149187  1  0.028891  -0.001114  -0.040128  0.014927  -0.000977  4.128869  -0.001
C  C147  1  0.61086221  0.56057048  0.21962472  1  0.396493  0.003436  0.006842  -0.054519  0.003348  3.94625  0.002
C  C148  1  0.69682522  0.66731563  0.02433426  1  0.385175  0.004057  0.005986  -0.058698  0.003917  3.953903  0.002
C  C149  1  0.72420233  0.63539035  0.00949659  1  0.020787  -0.001322  -0.039824  0.014015  -0.001169  4.128808  -0.002
C  C150  1  0.71098871  0.60123061  0.03395140  1  0.408815  0.003975  0.007454  -0.052069  0.00387  3.939032  0.002
C  C151  1  0.54626981  0.71442846  0.17816085  1  0.430436  0.003623  0.005286  -0.059348  0.003515  3.953446  0.002
C  C152  1  0.53469211  0.74673652  0.15108415  1  0.007288  -0.00122  -0.039896  0.014659  -0.001087  4.127385  -0.002
C  C153  1  0.56058424  0.73877984  0.11556817  1  0.417997  0.003626  0.006784  -0.053994  0.003537  3.94528  0.002
C  C154  1  0.35610610  0.02471024  0.31827086  1  0.419081  0.003578  0.005875  -0.05628  0.003495  3.946783  0.002
C  C155  1  0.39024325  0.01857919  0.28835739  1  0.000894  -0.00117  -0.040165  0.014424  -0.001041  4.127503  -0.002
C  C156  1  0.41867652  0.05280608  0.29180700  1  0.406196  0.003556  0.0048  -0.059466  0.003452  3.953752  0.002
C  C157  1  0.28416965  0.16274124  0.45991022  1  0.398681  0.003868  0.005609  -0.060295  0.003752  3.956341  0.002
C  C158  1  0.25455145  0.13091067  0.47238389  1  -0.003022  -0.001301  -0.039833  0.014669  -0.001168  4.128026  -0.002
C  C159  1  0.26710758  0.09847379  0.44695466  1  0.402604  0.003865  0.00681  -0.054377  0.003764  3.941051  0.002
C  C160  1  0.47728097  0.20168271  0.34548077  1  0.408761  0.002669  0.0061  -0.056037  0.002607  3.946769  0.002
C  C161  1  0.47956602  0.23460250  0.37225089  1  0.052064  -0.000932  -0.040315  0.013711  -0.00079  4.128171  -0.001
C  C162  1  0.44062473  0.22967102  0.39743606  1  0.398026  0.002621  0.005903  -0.058704  0.002552  3.954092  0.002
C  C163  1  0.85938387  0.47073121  0.69176076  1  0.367015  0.00286  0.005672  -0.056897  0.002781  3.952057  0.002
C  C164  1  0.87416165  0.46296443  0.73183330  1  0.012472  -0.000914  -0.040745  0.014621  -0.000804  4.127765  -0.001
C  C165  1  0.89062437  0.42256276  0.73086794  1  0.403156  0.002811  0.004751  -0.060496  0.002724  3.954953  0.002
C  C166  1  0.80122689  0.36551289  0.52359243  1  0.388327  0.00434  0.007172  -0.054085  0.004221  3.946174  0.003
C  C167  1  0.77709186  0.40171395  0.51418681  1  0.011719  -0.001287  -0.039647  0.014688  -0.001141  4.123595  -0.002
C  C168  1  0.79227347  0.42942908  0.54317195  1  0.409219  0.00436  0.004665  -0.060763  0.004212  3.951359  0.003
C  C169  1  0.96199278  0.28753927  0.65392409  1  0.395384  0.003911  0.007935  -0.05106  0.003801  3.939531  0.002
C  C170  1  0.96958155  0.26049103  0.62165751  1  0.02217  -0.001307  -0.039796  0.014785  -0.001161  4.132012  -0.002
C  C171  1  0.93802414  0.27332545  0.59218852  1  0.430133  0.003976  0.005414  -0.060206  0.00386  3.956573  0.002
C  C172  1  0.13166325  0.01971168  0.73206430  1  0.034311  -0.012305  -0.100668  -0.146108  -0.010931  4.020509  -0.008
C  C173  1  0.14011316  0.97926723  0.72842839  1  -0.101706  0.020121  -0.095236  -0.117823  0.019408  4.0423  0.012
C  C174  1  0.63122633  0.48657816  0.27993124  1  -0.07042  -0.012266  -0.101358  -0.148033  -0.010874  4.0196  -0.008
C  C175  1  0.62672267  0.48508651  0.23898829  1  -0.0327  0.01946  -0.095659  -0.117864  0.018823  4.052032  0.012
C  C176  1  0.35919682  0.96436440  0.24526454  1  -0.011371  -0.012423  -0.101213  -0.147729  -0.011042  4.021542  -0.008
C  C177  1  0.39450463  0.98613247  0.25910836  1  -0.025566  0.019689  -0.095925  -0.1173  0.019011  4.048828  0.012
C  C178  1  0.87704169  0.53174436  0.76135704  1  -0.060729  -0.010758  -0.100508  -0.146008  -0.009391  4.020984  -0.007
C  C179  1  0.87297237  0.49069534  0.76578834  1  0.003734  0.017272  -0.095303  -0.118813  0.016707  4.047495  0.011
C  C180  1  0.25620398  0.88003883  0.06139151  1  -0.050896  -0.009638  -0.100654  -0.149831  -0.008275  4.015583  -0.007
C  C181  1  0.26331626  0.88365368  0.02060819  1  -0.015476  0.01504  -0.094912  -0.116971  0.014563  4.058979  0.009
C  C182  1  0.71986944  0.37809420  0.46572375  1  0.008698  -0.015237  -0.101474  -0.146326  -0.013988  4.021166  -0.01
C  C183  1  0.74397019  0.40845426  0.48244619  1  -0.077506  0.023755  -0.096246  -0.117674  0.02297  4.042078  0.015
C  C184  1  0.77625615  0.60638760  0.95669302  1  -0.09914  -0.013298  -0.102361  -0.149885  -0.011883  4.018278  -0.009
C  C185  1  0.75833936  0.63824417  0.97716884  1  -0.051249  0.020511  -0.096028  -0.117131  0.019815  4.056052  0.013
C  C186  1  0.20318061  0.09977057  0.52598969  1  0.030504  -0.01282  -0.102595  -0.150084  -0.011327  4.016769  -0.008
C  C187  1  0.22119033  0.13240294  0.50535291  1  -0.097538  0.019688  -0.095659  -0.116235  0.018982  4.055736  0.012
C  C188  1  0.97396936  0.71475773  0.85506188  1  -0.037051  -0.015478  -0.102734  -0.148552  -0.014122  4.021538  -0.01
C  C189  1  0.98903633  0.73566654  0.88727143  1  -0.052819  0.023143  -0.096371  -0.116777  0.02234  4.057106  0.014
C  C190  1  0.53917192  0.28235536  0.34383403  1  -0.003951  -0.010076  -0.100687  -0.148737  -0.008624  4.012802  -0.007
C  C191  1  0.51361283  0.26637837  0.37497239  1  -0.146179  0.01579  -0.095314  -0.116682  0.015194  4.057481  0.01
C  C192  1  0.02556885  0.20963315  0.64880118  1  -0.078647  -0.012756  -0.102679  -0.151459  -0.01143  4.019455  -0.008
C  C193  1  0.00209263  0.22745264  0.61797339  1  -0.063476  0.019682  -0.095945  -0.116556  0.019002  4.060962  0.012
C  C194  1  0.47925918  0.79920101  0.12799924  1  -0.063661  -0.012358  -0.101719  -0.14667  -0.010995  4.022144  -0.008
C  C195  1  0.50180014  0.77904406  0.15799785  1  -0.0438  0.019436  -0.096385  -0.119601  0.018761  4.051005  0.012
N  N196  1  0.13586967  0.89463929  0.80411591  1  -0.770359  0.00053  -0.341522  -0.147539  0.000438  3.7644  0.0
N  N197  1  0.15597021  0.92464077  0.82638045  1  -0.784585  0.00082  -0.338574  -0.140506  0.000702  3.771503  0.0
N  N198  1  0.19176341  0.89644187  0.93088366  1  -0.765456  0.0004  -0.338925  -0.140083  0.000323  3.77462  0.0
N  N199  1  0.16452198  0.87145293  0.95530627  1  -0.797837  0.000671  -0.340118  -0.144192  0.000576  3.767103  0.0
N  N200  1  0.07538503  0.81326646  0.90483401  1  -0.821746  0.000957  -0.339818  -0.142824  0.000818  3.773802  0.0
N  N201  1  0.07644321  0.81261292  0.86279921  1  -0.72749  0.001091  -0.336564  -0.139091  0.000964  3.773434  0.001
N  N202  1  0.61596547  0.58464552  0.18583155  1  -0.778394  0.000869  -0.337909  -0.140365  0.000752  3.775342  0.0
N  N203  1  0.63391089  0.56118530  0.15512294  1  -0.77407  0.000589  -0.33963  -0.142223  0.000488  3.775541  0.0
N  N204  1  0.67839926  0.61215991  0.06102767  1  -0.777939  0.000955  -0.336875  -0.140137  0.000831  3.769961  0.001
N  N205  1  0.66941510  0.65319874  0.05494459  1  -0.774941  0.000727  -0.340646  -0.141734  0.000612  3.777024  0.0
N  N206  1  0.58531699  0.70440388  0.12117930  1  -0.775763  0.000886  -0.338714  -0.139514  0.000766  3.778745  0.0
N  N207  1  0.57626404  0.68907355  0.15998562  1  -0.774035  0.000612  -0.339012  -0.142335  0.00051  3.769602  0.0
N  N208  1  0.40233158  0.07757544  0.32101070  1  -0.778585  0.000588  -0.337874  -0.14135  0.000486  3.772046  0.0
N  N209  1  0.36362214  0.05991162  0.33766627  1  -0.781241  0.000891  -0.337006  -0.139699  0.000771  3.773934  0.0
N  N210  1  0.30161149  0.11020184  0.42168423  1  -0.765724  0.000957  -0.335471  -0.137606  0.000836  3.77163  0.001
N  N211  1  0.31242669  0.15006280  0.42990889  1  -0.776523  0.000649  -0.341757  -0.142929  0.000545  3.777805  0.0
N  N212  1  0.41692741  0.19666586  0.38624194  1  -0.761236  0.000409  -0.340268  -0.141449  0.000334  3.782407  0.0
N  N213  1  0.43992434  0.17902011  0.35421903  1  -0.773279  0.000689  -0.337025  -0.139844  0.000595  3.766059  0.0
N  N214  1  0.88637938  0.40772340  0.69302200  1  -0.769194  0.000467  -0.339391  -0.142497  0.000383  3.775458  0.0
N  N215  1  0.86665119  0.43760151  0.66880359  1  -0.770741  0.000733  -0.337829  -0.139864  0.000632  3.771055  0.0
N  N216  1  0.82244617  0.41090348  0.56816163  1  -0.777933  0.000837  -0.338668  -0.143234  0.000715  3.766416  0.0
N  N217  1  0.82815080  0.37125050  0.55576075  1  -0.773293  0.001006  -0.338189  -0.138822  0.000871  3.778748  0.001
N  N218  1  0.91351093  0.30523353  0.60591805  1  -0.783517  0.000708  -0.339794  -0.142386  0.000593  3.775951  0.0
N  N219  1  0.92854396  0.31411611  0.64424778  1  -0.775898  0.000946  -0.336494  -0.137915  0.000824  3.772429  0.001
