# generated using pymatgen
data_AgH2C2N3
_symmetry_space_group_name_H-M   'P 1'
_cell_length_a   7.82403428
_cell_length_b   8.85362473
_cell_length_c   11.45797088
_cell_angle_alpha   79.94517030
_cell_angle_beta   78.51527137
_cell_angle_gamma   85.13625226
_symmetry_Int_Tables_number   1
_chemical_formula_structural   AgH2C2N3
_chemical_formula_sum   'Ag8 H16 C16 N24'
_cell_volume   764.83786125
_cell_formula_units_Z   8
loop_
 _symmetry_equiv_pos_site_id
 _symmetry_equiv_pos_as_xyz
  1  'x, y, z'
loop_
 _atom_site_type_symbol
 _atom_site_label
 _atom_site_symmetry_multiplicity
 _atom_site_fract_x
 _atom_site_fract_y
 _atom_site_fract_z
 _atom_site_occupancy
 _atom_site_pbe_bader_spin_density
 _atom_site_pbe_cm5_charge
 _atom_site_pbe_ddec_charge
 _atom_site_pbe_ddec_spin_density
 _atom_site_pbe_ddec_sum_bond_order
 _atom_site_pbe_magmom
Ag  Ag0  1  0.59154967  0.17952216  0.23699365  1  0  0.448529  0.256243  0  2.148419  0
Ag  Ag1  1  0.40845405  0.82047615  0.76300705  1  0  0.448495  0.256174  0  2.148497  0
Ag  Ag2  1  0.35617288  0.42056387  0.46695234  1  0  0.451395  0.258561  0  2.147864  0
Ag  Ag3  1  0.64382548  0.57943671  0.53304615  1  0  0.451429  0.258587  0  2.147897  0
Ag  Ag4  1  0.81740266  0.89533717  0.74754748  1  0  0.444778  0.24349  0  2.106784  0
Ag  Ag5  1  0.18259211  0.10465878  0.25245210  1  0  0.444782  0.243497  0  2.106701  0
Ag  Ag6  1  0.08309044  0.65757096  0.96751897  1  0  0.445544  0.25214  0  2.176601  0
Ag  Ag7  1  0.91691224  0.34242390  0.03248058  1  0  0.44553  0.252135  0  2.176616  0
H  H8  1  0.82974220  0.96075604  0.44302307  1  0  0.124256  0.085592  0  1.002006  0
H  H9  1  0.17025117  0.03924102  0.55698092  1  0  0.124239  0.085597  0  1.001955  0
H  H10  1  0.53344114  0.20692254  0.70208325  1  0  0.122296  0.086849  0  1.016514  0
H  H11  1  0.46654963  0.79307452  0.29791934  1  0  0.122303  0.086819  0  1.016584  0
H  H12  1  0.18734459  0.69242187  0.24879164  1  0  0.125924  0.091193  0  0.997017  0
H  H13  1  0.81265034  0.30757178  0.75120824  1  0  0.125909  0.09118  0  0.996969  0
H  H14  1  0.37069267  0.36884642  0.01976921  1  0  0.128063  0.099593  0  0.992639  0
H  H15  1  0.62931123  0.63114960  0.98023002  1  0  0.128043  0.099536  0  0.992562  0
H  H16  1  0.99508033  0.67547832  0.51993467  1  0  0.120546  0.084682  0  1.013936  0
H  H17  1  0.00491731  0.32453258  0.48006517  1  0  0.120554  0.084689  0  1.014008  0
H  H18  1  0.29299714  0.43238246  0.76488834  1  0  0.124072  0.089877  0  1.013029  0
H  H19  1  0.70699994  0.56761811  0.23510771  1  0  0.124051  0.089833  0  1.013043  0
H  H20  1  0.61935726  0.12998968  0.94942078  1  0  0.124791  0.093345  0  1.004089  0
H  H21  1  0.38064247  0.87000974  0.05058118  1  0  0.12478  0.093286  0  1.004117  0
H  H22  1  0.86400511  0.84752422  0.20821839  1  0  0.126941  0.091068  0  0.995277  0
H  H23  1  0.13600988  0.15248107  0.79177813  1  0  0.126911  0.091052  0  0.995199  0
C  C24  1  0.73649637  0.04093642  0.48670518  1  0  0.124721  0.129133  0  4.017947  0
C  C25  1  0.26349693  0.95906180  0.51329780  1  0  0.124696  0.129105  0  4.018093  0
C  C26  1  0.58707175  0.16563172  0.61791789  1  0  0.11457  0.104353  0  4.051151  0
C  C27  1  0.41292139  0.83436880  0.38208393  1  0  0.1146  0.104437  0  4.05129  0
C  C28  1  0.25541620  0.59456811  0.21124072  1  0  0.12167  0.122087  0  3.999753  0
C  C29  1  0.74458117  0.40542784  0.78876114  1  0  0.121649  0.122052  0  3.999546  0
C  C30  1  0.34853106  0.43096548  0.09539322  1  0  0.122166  0.12009  0  4.032985  0
C  C31  1  0.65147000  0.56903397  0.90460332  1  0  0.122244  0.120269  0  4.032961  0
C  C32  1  0.04950865  0.63598200  0.60066607  1  0  0.121325  0.128704  0  4.007702  0
C  C33  1  0.95048939  0.36402316  0.39933448  1  0  0.121288  0.128658  0  4.007721  0
C  C34  1  0.19978155  0.51181396  0.72444588  1  0  0.118893  0.114086  0  4.024988  0
C  C35  1  0.80021804  0.48818778  0.27555143  1  0  0.11891  0.1141  0  4.025049  0
C  C36  1  0.69659782  0.03833882  0.99360095  1  0  0.118117  0.111737  0  4.047288  0
C  C37  1  0.30340705  0.96166179  0.00639929  1  0  0.118139  0.111797  0  4.047116  0
C  C38  1  0.82010490  0.89530225  0.12468060  1  0  0.121486  0.120397  0  4.015474  0
C  C39  1  0.17990764  0.10470072  0.87531830  1  0  0.121534  0.120397  0  4.01548  0
N  N40  1  0.62997086  0.13881737  0.42950560  1  0  -0.2693  -0.15849  0  3.48816  0
N  N41  1  0.37002497  0.86118202  0.57049688  1  0  -0.269263  -0.158441  0  3.488139  0
N  N42  1  0.53311241  0.21968557  0.51460294  1  0  -0.277133  -0.182574  0  3.556274  0
N  N43  1  0.46688472  0.78031383  0.48539849  1  0  -0.277148  -0.18258  0  3.556316  0
N  N44  1  0.71538634  0.05339171  0.60514435  1  0  -0.389235  -0.320567  0  3.651509  0
N  N45  1  0.28460704  0.94660536  0.39485876  1  0  -0.389235  -0.320611  0  3.65174  0
N  N46  1  0.35678665  0.49126968  0.26973880  1  0  -0.27944  -0.195099  0  3.528869  0
N  N47  1  0.64321058  0.50872859  0.73025841  1  0  -0.279395  -0.195023  0  3.528563  0
N  N48  1  0.41722152  0.38526458  0.19417059  1  0  -0.281136  -0.186828  0  3.564406  0
N  N49  1  0.58278230  0.61473258  0.80582850  1  0  -0.281178  -0.186933  0  3.564615  0
N  N50  1  0.24730575  0.56215156  0.10122467  1  0  -0.380248  -0.299319  0  3.61058  0
N  N51  1  0.75269424  0.43784443  0.89877334  1  0  -0.38027  -0.299362  0  3.610465  0
N  N52  1  0.00349423  0.69753090  0.70129845  1  0  -0.270838  -0.168524  0  3.504314  0
N  N53  1  0.99650405  0.30247081  0.29870166  1  0  -0.27083  -0.168484  0  3.504159  0
N  N54  1  0.10124007  0.61717267  0.78137112  1  0  -0.282532  -0.179189  0  3.584215  0
N  N55  1  0.89875691  0.38282904  0.21862828  1  0  -0.282515  -0.179189  0  3.584182  0
N  N56  1  0.17168583  0.51853048  0.61070851  1  0  -0.385408  -0.315629  0  3.600012  0
N  N57  1  0.82831345  0.48147585  0.38928910  1  0  -0.385406  -0.315599  0  3.599864  0
N  N58  1  0.78820432  0.92869892  0.93808839  1  0  -0.279892  -0.185725  0  3.5562  0
N  N59  1  0.21179926  0.07130169  0.06191115  1  0  -0.279887  -0.185734  0  3.556246  0
N  N60  1  0.86864384  0.83546039  0.02318832  1  0  -0.27178  -0.182316  0  3.480532  0
N  N61  1  0.13136601  0.16454372  0.97680904  1  0  -0.271795  -0.182361  0  3.480667  0
N  N62  1  0.71144466  0.02224041  0.11099688  1  0  -0.38314  -0.308956  0  3.632723  0
N  N63  1  0.28856528  0.97776255  0.88900063  1  0  -0.383163  -0.308886  0  3.632642  0
