# generated using pymatgen
data_CuH4C4(N2O3)2
_symmetry_space_group_name_H-M   'P 1'
_cell_length_a   5.26264747
_cell_length_b   6.67970930
_cell_length_c   11.69165282
_cell_angle_alpha   89.99933552
_cell_angle_beta   90.00083224
_cell_angle_gamma   90.00059232
_symmetry_Int_Tables_number   1
_chemical_formula_structural   CuH4C4(N2O3)2
_chemical_formula_sum   'Cu2 H8 C8 N8 O12'
_cell_volume   410.99614825
_cell_formula_units_Z   2
loop_
 _symmetry_equiv_pos_site_id
 _symmetry_equiv_pos_as_xyz
  1  'x, y, z'
loop_
 _atom_site_type_symbol
 _atom_site_label
 _atom_site_symmetry_multiplicity
 _atom_site_fract_x
 _atom_site_fract_y
 _atom_site_fract_z
 _atom_site_occupancy
 _atom_site_hle17_ddec_charge
 _atom_site_hle17_ddec_spin_density
 _atom_site_hle17_ddec_sum_bond_order
 _atom_site_hle17_magmom
 _atom_site_hse06_10hf_ddec_charge
 _atom_site_hse06_10hf_ddec_spin_density
 _atom_site_hse06_10hf_ddec_sum_bond_order
 _atom_site_hse06_10hf_magmom
 _atom_site_hse06_ddec_charge
 _atom_site_hse06_ddec_spin_density
 _atom_site_hse06_ddec_sum_bond_order
 _atom_site_hse06_magmom
 _atom_site_pbe_cm5_charge
 _atom_site_pbe_ddec_charge
 _atom_site_pbe_ddec_spin_density
 _atom_site_pbe_ddec_sum_bond_order
 _atom_site_pbe_magmom
Cu  Cu0  1  0.99999867  0.49999689  0.49999841  1  0.812108  -0.702508  1.764656  -0.489  0.785909  -0.787247  2.14065  -0.599  0.879132  -0.865117  2.071557  -0.687  0.759821  0.729353  -0.728294  2.187975  -0.539
Cu  Cu1  1  0.00000000  0.00000150  0.00000086  1  0.812125  0.7025  1.764737  0.489  0.785843  0.787235  2.140759  0.599  0.879094  0.865112  2.071663  0.687  0.759883  0.729306  0.728296  2.188029  0.539
H  H2  1  0.68639037  0.81098109  0.60919565  1  0.112768  -0.001574  0.937697  -0.002  0.115134  -0.001254  1.006063  -0.002  0.117825  -0.000957  1.003507  -0.002  0.128158  0.112848  -0.001531  1.008348  -0.002
H  H3  1  0.31360318  0.68901371  0.10920225  1  0.11277  0.001577  0.937656  0.002  0.115183  0.001255  1.005972  0.002  0.117879  0.000957  1.003406  0.002  0.128161  0.112898  0.001532  1.008265  0.002
H  H4  1  0.31360672  0.81098624  0.39080446  1  0.112768  -0.00158  0.937701  -0.002  0.115149  -0.001254  1.006047  -0.002  0.117842  -0.000957  1.003486  -0.002  0.128158  0.112868  -0.001531  1.008339  -0.002
H  H5  1  0.68639613  0.68901636  0.89080294  1  0.112808  0.001569  0.937694  0.002  0.115173  0.001255  1.006045  0.002  0.117866  0.000957  1.003485  0.002  0.128169  0.112884  0.001531  1.008336  0.002
H  H6  1  0.31360839  0.18901307  0.39080055  1  0.112725  -0.00158  0.937631  -0.002  0.115109  -0.001255  1.005975  -0.002  0.117802  -0.000957  1.003414  -0.002  0.128139  0.112826  -0.001532  1.008265  -0.002
H  H7  1  0.68639368  0.31098793  0.89080249  1  0.112765  0.001578  0.937586  0.002  0.115126  0.001255  1.005955  0.002  0.11782  0.000957  1.003393  0.002  0.12815  0.112838  0.001532  1.008246  0.002
H  H8  1  0.68639774  0.18900791  0.60919601  1  0.112772  -0.001584  0.937685  -0.002  0.115089  -0.001255  1.006091  -0.002  0.11778  -0.000957  1.003534  -0.002  0.12813  0.112806  -0.001531  1.008383  -0.002
H  H9  1  0.31360453  0.31098678  0.10920009  1  0.112751  0.001581  0.937648  0.002  0.115153  0.001255  1.005978  0.002  0.117848  0.000957  1.003414  0.002  0.12816  0.112866  0.001531  1.008269  0.002
C  C10  1  0.82571923  0.89593945  0.56038663  1  0.110519  -0.001022  3.611529  -0.001  0.080691  -0.002127  3.869073  -0.002  0.087213  -0.001063  3.882672  -0.001  0.067787  0.076046  -0.003009  3.861373  -0.003
C  C11  1  0.17427651  0.60406233  0.06038949  1  0.110472  0.00102  3.611277  0.001  0.080606  0.002127  3.868821  0.002  0.087122  0.001063  3.882426  0.001  0.067775  0.075938  0.003009  3.861129  0.003
C  C12  1  0.17428276  0.89594097  0.43961206  1  0.110455  -0.000989  3.61142  -0.001  0.080634  -0.002126  3.868932  -0.002  0.087155  -0.001063  3.882532  -0.001  0.067794  0.075978  -0.00301  3.861248  -0.003
C  C13  1  0.82571980  0.60406065  0.93961371  1  0.110357  0.001045  3.611529  0.001  0.080558  0.002128  3.869004  0.002  0.087075  0.001062  3.882608  0.001  0.067744  0.075892  0.003009  3.861305  0.003
C  C14  1  0.17427953  0.10405771  0.43961384  1  0.110519  -0.000985  3.611404  -0.001  0.080714  -0.002128  3.86893  -0.002  0.087235  -0.001062  3.882534  -0.001  0.067804  0.076061  -0.003009  3.861239  -0.003
C  C15  1  0.82572225  0.39594231  0.93961355  1  0.110476  0.000966  3.61139  0.001  0.080683  0.002128  3.868872  0.002  0.0872  0.001062  3.882475  0.001  0.067804  0.076017  0.003009  3.861172  0.003
C  C16  1  0.82571980  0.10405319  0.56038499  1  0.110371  -0.000959  3.611567  -0.001  0.080638  -0.002128  3.869062  -0.002  0.08716  -0.001063  3.882663  -0.001  0.067765  0.075981  -0.003009  3.861371  -0.003
C  C17  1  0.17427706  0.39594249  0.06039018  1  0.110481  0.000955  3.611242  0.001  0.080632  0.002128  3.868789  0.002  0.087148  0.001063  3.882393  0.001  0.067767  0.075964  0.003009  3.861095  0.003
N  N18  1  0.99999488  0.79454265  0.50000085  1  -0.252999  -0.06619  3.369273  -0.081  -0.206847  -0.048507  3.662683  -0.063  -0.232529  -0.041744  3.682287  -0.057  -0.337228  -0.192988  -0.050794  3.652875  -0.063
N  N19  1  0.00000077  0.70545286  0.00000192  1  -0.252971  0.06617  3.369461  0.081  -0.206795  0.048506  3.662819  0.063  -0.232481  0.041743  3.682444  0.057  -0.337239  -0.192942  0.050801  3.652996  0.063
N  N20  1  0.00000578  0.20545151  0.49999620  1  -0.25295  -0.066201  3.369267  -0.081  -0.206837  -0.048504  3.662671  -0.063  -0.232524  -0.041742  3.68228  -0.057  -0.337222  -0.192978  -0.050792  3.652862  -0.063
N  N21  1  0.00000001  0.29454875  0.00000073  1  -0.252954  0.066207  3.369404  0.081  -0.206791  0.048505  3.662771  0.063  -0.232478  0.041743  3.682393  0.057  -0.337242  -0.192939  0.050801  3.652946  0.063
N  N22  1  0.73087801  0.50000227  0.30228812  1  0.687638  0.004783  4.113055  0.008  0.723231  0.001323  4.414437  0.004  0.756261  0.001117  4.419684  0.003  0.097629  0.700441  0.001486  4.410605  0.004
N  N23  1  0.26910594  0.00000351  0.80231257  1  0.686991  -0.004819  4.112652  -0.008  0.722454  -0.001326  4.414366  -0.004  0.755487  -0.001113  4.419628  -0.003  0.097418  0.699672  -0.001488  4.410511  -0.004
N  N24  1  0.26912265  0.50000087  0.69771149  1  0.687312  0.004783  4.112957  0.008  0.722929  0.001322  4.414356  0.004  0.755961  0.001116  4.419606  0.003  0.097569  0.700137  0.001486  4.410519  0.004
N  N25  1  0.73089472  0.99999813  0.19768790  1  0.687114  -0.004766  4.112497  -0.008  0.722573  -0.001326  4.414219  -0.004  0.755607  -0.001111  4.419478  -0.003  0.097485  0.699792  -0.001488  4.41037  -0.004
O  O26  1  0.97442693  0.50000452  0.32688679  1  -0.442919  -0.108704  1.808874  -0.141  -0.454923  -0.074204  2.074692  -0.105  -0.491513  -0.056075  2.069884  -0.084  -0.202937  -0.430697  -0.085742  2.078212  -0.116
O  O27  1  0.02553692  0.00000226  0.82689172  1  -0.442691  0.108723  1.808706  0.141  -0.45461  0.074212  2.074519  0.105  -0.49121  0.056083  2.069721  0.084  -0.20285  -0.430403  0.085747  2.078024  0.116
O  O28  1  0.02556423  0.49999413  0.67310855  1  -0.442875  -0.108727  1.808633  -0.141  -0.454914  -0.074214  2.074483  -0.105  -0.491508  -0.056083  2.069675  -0.084  -0.202979  -0.430687  -0.085759  2.077997  -0.116
O  O29  1  0.97446296  0.00000078  0.17310866  1  -0.44274  0.108694  1.808681  0.141  -0.454661  0.074215  2.074506  0.105  -0.491261  0.056084  2.069706  0.084  -0.202879  -0.430455  0.085741  2.078017  0.116
O  O30  1  0.57587752  0.49999781  0.38397924  1  -0.445944  0.003209  1.777984  0.003  -0.452606  0.002577  2.016355  0.003  -0.472086  0.002687  2.007527  0.003  -0.173246  -0.438974  0.001553  2.022731  0.001
O  O31  1  0.42407759  0.99999744  0.88400220  1  -0.445716  -0.003204  1.778324  -0.003  -0.452314  -0.002577  2.016749  -0.003  -0.471792  -0.002691  2.007926  -0.003  -0.173118  -0.438691  -0.001556  2.023112  -0.001
O  O32  1  0.42412314  0.50000383  0.61601610  1  -0.445782  0.003211  1.777784  0.003  -0.452397  0.002577  2.016073  0.003  -0.471881  0.002687  2.007252  0.003  -0.173178  -0.438771  0.001553  2.022447  0.001
O  O33  1  0.57592307  0.00000270  0.11599742  1  -0.445733  -0.003228  1.77827  -0.003  -0.45233  -0.002578  2.016699  -0.003  -0.471807  -0.002692  2.007875  -0.003  -0.173123  -0.438704  -0.001557  2.023062  -0.001
O  O34  1  0.66802772  0.50000304  0.19989179  1  -0.398364  -0.013778  1.772851  -0.017  -0.393439  -0.007851  1.98007  -0.011  -0.409753  -0.003704  1.977194  -0.005  -0.155987  -0.380181  -0.012807  1.981234  -0.017
O  O35  1  0.33196994  0.00001228  0.69989954  1  -0.39808  0.013796  1.772013  0.017  -0.393176  0.007854  1.979284  0.011  -0.409494  0.003705  1.976419  0.005  -0.156031  -0.379932  0.01281  1.980444  0.017
O  O36  1  0.33196724  0.50000309  0.80010440  1  -0.398215  -0.013765  1.773156  -0.017  -0.393339  -0.007848  1.98039  -0.011  -0.409649  -0.003703  1.977516  -0.005  -0.155951  -0.380084  -0.012804  1.981552  -0.017
O  O37  1  0.66802882  0.99998786  0.30010179  1  -0.398134  0.013797  1.771944  0.017  -0.393231  0.007851  1.979223  0.011  -0.40955  0.003702  1.976357  0.005  -0.156059  -0.379987  0.012808  1.980386  0.017
