# generated using pymatgen
data_GaH4C4Br3N2
_symmetry_space_group_name_H-M   'P 1'
_cell_length_a   6.58118836
_cell_length_b   6.58134290
_cell_length_c   11.94026632
_cell_angle_alpha   79.20972363
_cell_angle_beta   79.21240463
_cell_angle_gamma   61.54966714
_symmetry_Int_Tables_number   1
_chemical_formula_structural   GaH4C4Br3N2
_chemical_formula_sum   'Ga2 H8 C8 Br6 N4'
_cell_volume   443.78781120
_cell_formula_units_Z   2
loop_
 _symmetry_equiv_pos_site_id
 _symmetry_equiv_pos_as_xyz
  1  'x, y, z'
loop_
 _atom_site_type_symbol
 _atom_site_label
 _atom_site_symmetry_multiplicity
 _atom_site_fract_x
 _atom_site_fract_y
 _atom_site_fract_z
 _atom_site_occupancy
 _atom_site_hle17_bader_spin_density
 _atom_site_hle17_ddec_charge
 _atom_site_hle17_ddec_spin_density
 _atom_site_hle17_ddec_sum_bond_order
 _atom_site_hle17_magmom
 _atom_site_hse06_10hf_bader_spin_density
 _atom_site_hse06_10hf_ddec_charge
 _atom_site_hse06_10hf_ddec_spin_density
 _atom_site_hse06_10hf_ddec_sum_bond_order
 _atom_site_hse06_10hf_magmom
 _atom_site_hse06_bader_spin_density
 _atom_site_hse06_ddec_charge
 _atom_site_hse06_ddec_spin_density
 _atom_site_hse06_ddec_sum_bond_order
 _atom_site_hse06_magmom
 _atom_site_pbe_bader_spin_density
 _atom_site_pbe_cm5_charge
 _atom_site_pbe_ddec_charge
 _atom_site_pbe_ddec_spin_density
 _atom_site_pbe_ddec_sum_bond_order
 _atom_site_pbe_magmom
Ga  Ga0  1  0.28866017  0.71132994  0.24999587  1  0  0.944146  0  2.651934  0  0  0.79201  0  3.112525  0  0  0.851319  0  3.06522  0  0  0.258507  0.752797  0  3.142019  0
Ga  Ga1  1  0.71133439  0.28866862  0.74999673  1  0  0.944221  0  2.651973  0  0  0.792121  0  3.112535  0  0  0.85142  0  3.065247  0  0  0.258528  0.752907  0  3.142048  0
H  H2  1  0.41950591  0.35617024  0.47351144  1  0  0.086504  0  0.976738  0  0  0.089301  0  1.051498  0  0  0.092191  0  1.049406  0  0  0.106998  0.087076  0  1.05335  0
H  H3  1  0.64382924  0.58054000  0.02647785  1  0  0.08616  0  0.976946  0  0  0.089038  0  1.051671  0  0  0.091911  0  1.049571  0  0  0.106952  0.086812  0  1.053527  0
H  H4  1  0.58052816  0.64381972  0.52648970  1  0  0.086317  0  0.976551  0  0  0.089133  0  1.051311  0  0  0.092021  0  1.04921  0  0  0.106945  0.086906  0  1.05317  0
H  H5  1  0.35615044  0.41947070  0.97352592  1  0  0.086052  0  0.97686  0  0  0.088941  0  1.051578  0  0  0.091812  0  1.049478  0  0  0.106931  0.086716  0  1.053439  0
H  H6  1  0.77882905  0.77381452  0.34789469  1  0  0.090171  0  0.972622  0  0  0.091841  0  1.047167  0  0  0.095052  0  1.044729  0  0  0.10833  0.089388  0  1.049242  0
H  H7  1  0.22616177  0.22116486  0.15213146  1  0  0.090222  0  0.97228  0  0  0.091831  0  1.046885  0  0  0.095035  0  1.044471  0  0  0.108274  0.089384  0  1.048943  0
H  H8  1  0.22121337  0.22618417  0.65211558  1  0  0.090375  0  0.972494  0  0  0.09194  0  1.047168  0  0  0.095154  0  1.044732  0  0  0.108315  0.089489  0  1.049233  0
H  H9  1  0.77380166  0.77884753  0.84787464  1  0  0.090299  0  0.972401  0  0  0.09184  0  1.047051  0  0  0.095055  0  1.044612  0  0  0.108273  0.089389  0  1.049129  0
C  C10  1  0.23135588  0.42199854  0.48557454  1  0  0.09456  0  3.651823  0  0  0.064484  0  3.900581  0  0  0.067717  0  3.917659  0  0  0.058202  0.062078  0  3.889558  0
C  C11  1  0.57798478  0.76870231  0.01441659  1  0  0.095341  0  3.651713  0  0  0.065166  0  3.900451  0  0  0.068434  0  3.917517  0  0  0.058412  0.062749  0  3.889454  0
C  C12  1  0.76870035  0.57795664  0.51444800  1  0  0.09545  0  3.651545  0  0  0.065388  0  3.900172  0  0  0.068648  0  3.917238  0  0  0.058708  0.062966  0  3.889182  0
C  C13  1  0.42198660  0.23129618  0.98558845  1  0  0.095494  0  3.65174  0  0  0.06532  0  3.900616  0  0  0.068597  0  3.917668  0  0  0.05837  0.062895  0  3.889622  0
C  C14  1  0.87817597  0.65120100  0.41584135  1  0  0.098308  0  3.644975  0  0  0.067936  0  3.894203  0  0  0.071475  0  3.910822  0  0  0.060824  0.065329  0  3.883458  0
C  C15  1  0.34879216  0.12181645  0.08416530  1  0  0.098192  0  3.645053  0  0  0.068025  0  3.894175  0  0  0.071538  0  3.910824  0  0  0.060954  0.06544  0  3.88339  0
C  C16  1  0.12192148  0.34878568  0.58415194  1  0  0.098367  0  3.644134  0  0  0.068061  0  3.893354  0  0  0.071569  0  3.910019  0  0  0.060682  0.065441  0  3.882681  0
C  C17  1  0.65118833  0.87819252  0.91583018  1  0  0.098075  0  3.644857  0  0  0.068  0  3.894017  0  0  0.071517  0  3.91066  0  0  0.060833  0.065407  0  3.883248  0
Br  Br18  1  0.63844544  0.36153126  0.24999076  1  0  -0.398106  0  1.092697  0  0  -0.368604  0  1.386936  0  0  -0.385093  0  1.369384  0  0  -0.129659  -0.357214  0  1.399009  0
Br  Br19  1  0.36154014  0.63844988  0.74998110  1  0  -0.398125  0  1.092741  0  0  -0.368629  0  1.386958  0  0  -0.385122  0  1.369415  0  0  -0.129654  -0.357224  0  1.399034  0
Br  Br20  1  0.24376200  0.98467865  0.36796425  1  0  -0.376484  0  1.102365  0  0  -0.340348  0  1.39106  0  0  -0.357776  0  1.375527  0  0  -0.127089  -0.328122  0  1.401739  0
Br  Br21  1  0.01525737  0.75628786  0.13203309  1  0  -0.376493  0  1.102443  0  0  -0.340319  0  1.391069  0  0  -0.357746  0  1.375535  0  0  -0.127079  -0.328098  0  1.401742  0
Br  Br22  1  0.75625136  0.01530255  0.63203322  1  0  -0.376523  0  1.102469  0  0  -0.340324  0  1.391089  0  0  -0.357751  0  1.375556  0  0  -0.127055  -0.32808  0  1.401763  0
Br  Br23  1  0.98468971  0.24373320  0.86796961  1  0  -0.37646  0  1.102445  0  0  -0.340313  0  1.391132  0  0  -0.35774  0  1.375595  0  0  -0.127046  -0.328081  0  1.401817  0
N  N24  1  0.10940770  0.57264464  0.40180544  1  0  -0.266289  0  3.310611  0  0  -0.185152  0  3.543345  0  0  -0.201999  0  3.567188  0  0  -0.271786  -0.173774  0  3.527409  0
N  N25  1  0.42738498  0.89055814  0.09817983  1  0  -0.2665  0  3.310836  0  0  -0.185474  0  3.543709  0  0  -0.202326  0  3.567541  0  0  -0.27189  -0.1741  0  3.527782  0
N  N26  1  0.89056554  0.42738347  0.59818631  1  0  -0.266832  0  3.310469  0  0  -0.185678  0  3.543215  0  0  -0.20253  0  3.567049  0  0  -0.271939  -0.17431  0  3.527289  0
N  N27  1  0.57258601  0.10946473  0.90182023  1  0  -0.266444  0  3.310582  0  0  -0.185535  0  3.543537  0  0  -0.202385  0  3.567361  0  0  -0.271841  -0.174165  0  3.527625  0
