# generated using pymatgen
data_ZnH8C19N2Cl2(O2F)2
_symmetry_space_group_name_H-M   'P 1'
_cell_length_a   21.72720605
_cell_length_b   21.97461366
_cell_length_c   21.88961867
_cell_angle_alpha   59.91668506
_cell_angle_beta   63.19988033
_cell_angle_gamma   89.99817374
_symmetry_Int_Tables_number   1
_chemical_formula_structural   ZnH8C19N2Cl2(O2F)2
_chemical_formula_sum   'Zn4 H32 C76 N8 Cl8 O16 F8'
_cell_volume   7718.72380739
_cell_formula_units_Z   4
loop_
 _symmetry_equiv_pos_site_id
 _symmetry_equiv_pos_as_xyz
  1  'x, y, z'
loop_
 _atom_site_type_symbol
 _atom_site_label
 _atom_site_symmetry_multiplicity
 _atom_site_fract_x
 _atom_site_fract_y
 _atom_site_fract_z
 _atom_site_occupancy
 _atom_site_pbe_bader_charge
 _atom_site_pbe_bader_spin_density
 _atom_site_pbe_cm5_charge
 _atom_site_pbe_ddec_charge
 _atom_site_pbe_ddec_spin_density
 _atom_site_pbe_ddec_sum_bond_order
 _atom_site_pbe_magmom
Zn  Zn0  1  0.54142077  0.04536317  0.90917056  1  1.309241  0  0.661127  0.874668  0  2.309778  0
Zn  Zn1  1  0.45856327  0.95461766  0.09093166  1  1.316704  0  0.662004  0.875141  0  2.315484  0
Zn  Zn2  1  0.96239662  0.45662826  0.08682658  1  1.314119  0  0.663432  0.83863  0  2.397654  0
Zn  Zn3  1  0.03787598  0.54347063  0.91304852  1  1.309011  0  0.6644  0.83896  0  2.402653  0
H  H4  1  0.81413775  0.39285986  0.21470859  1  0.130909  0  0.135909  0.119394  0  0.966898  0
H  H5  1  0.73256164  0.31460670  0.37111800  1  0.140006  0  0.123536  0.133596  0  0.993418  0
H  H6  1  0.57633016  0.19526058  0.61013445  1  0.13792  0  0.124868  0.150225  0  0.974895  0
H  H7  1  0.77538949  0.19513252  0.60912305  1  0.13789  0  0.119507  0.143509  0  1.009662  0
H  H8  1  0.18622064  0.60750410  0.78500241  1  0.163521  0  0.136309  0.119264  0  0.96679  0
H  H9  1  0.26757852  0.68571047  0.62852845  1  0.152117  0  0.123007  0.132787  0  0.994113  0
H  H10  1  0.42332089  0.80506650  0.38977756  1  0.134034  0  0.124082  0.149476  0  0.977305  0
H  H11  1  0.22426825  0.80463368  0.39079507  1  0.135278  0  0.119097  0.143042  0  1.009392  0
H  H12  1  0.70025936  0.20724257  0.86598044  1  0.124528  0  0.108313  0.134099  0  1.00163  0
H  H13  1  0.79566665  0.28848053  0.14132997  1  0.104022  0  0.111119  0.136436  0  0.991772  0
H  H14  1  0.91936529  0.42483397  0.87577078  1  0.11085  0  0.099256  0.105653  0  1.01291  0
H  H15  1  0.84172707  0.34765515  0.87233233  1  0.111699  0  0.097257  0.109059  0  1.049638  0
H  H16  1  0.57688518  0.07217485  0.13156635  1  0.101507  0  0.099593  0.10598  0  1.014198  0
H  H17  1  0.65517252  0.14945403  0.13416592  1  0.125111  0  0.096673  0.108354  0  1.052639  0
H  H18  1  0.42323674  0.92804780  0.86844244  1  0.123708  0  0.107565  0.13301  0  1.006463  0
H  H19  1  0.08087384  0.57470287  0.12432062  1  0.127798  0  0.106929  0.132158  0  1.006065  0
H  H20  1  0.20471203  0.71145087  0.85873493  1  0.083983  0  0.103254  0.109194  0  1.000006  0
H  H21  1  0.28177733  0.78811699  0.86312689  1  0.128661  0  0.096811  0.107416  0  1.055883  0
H  H22  1  0.30009917  0.79233537  0.13396049  1  0.098633  0  0.100539  0.106655  0  1.009242  0
H  H23  1  0.22225621  0.71524836  0.13055175  1  0.131969  0  0.096811  0.108185  0  1.050753  0
H  H24  1  0.42369746  0.20380116  0.86841103  1  0.120494  0  0.107426  0.132811  0  1.007162  0
H  H25  1  0.07989099  0.30029617  0.12415703  1  0.093273  0  0.10717  0.132641  0  1.005921  0
H  H26  1  0.20410384  0.42899511  0.85860647  1  0.091191  0  0.103075  0.10874  0  1.000029  0
H  H27  1  0.28122034  0.34797932  0.86306022  1  0.122563  0  0.096721  0.107801  0  1.055206  0
H  H28  1  0.29971561  0.07357369  0.13394933  1  0.106048  0  0.100294  0.10655  0  1.009642  0
H  H29  1  0.22147222  0.15368873  0.13049014  1  0.126611  0  0.096941  0.107951  0  1.05034  0
H  H30  1  0.69946625  0.92576673  0.86594317  1  0.119775  0  0.108383  0.133662  0  1.002426  0
H  H31  1  0.79467270  0.56946652  0.14145048  1  0.124091  0  0.111126  0.136283  0  0.992532  0
H  H32  1  0.91904201  0.69886047  0.87588592  1  0.080856  0  0.099123  0.105669  0  1.013643  0
H  H33  1  0.84060087  0.77868543  0.87239201  1  0.125587  0  0.097535  0.109257  0  1.050766  0
H  H34  1  0.57613974  0.79578949  0.13151130  1  0.094889  0  0.099692  0.10586  0  1.013892  0
H  H35  1  0.65386677  0.71535025  0.13417454  1  0.125486  0  0.096501  0.108154  0  1.053362  0
C  C36  1  0.41554230  0.91397722  0.00242717  1  1.586095  0  0.21448  0.600826  0  4.153761  0
C  C37  1  0.41576504  0.08385394  0.00239171  1  1.594246  0  0.21439  0.60144  0  4.152519  0
C  C38  1  0.58436411  0.08583387  0.99795104  1  1.587486  0  0.215295  0.602484  0  4.153012  0
C  C39  1  0.58403376  0.91590180  0.99781022  1  1.596474  0  0.214698  0.601101  0  4.153549  0
C  C40  1  0.08900472  0.42052349  0.98890740  1  1.595439  0  0.215408  0.598686  0  4.155816  0
C  C41  1  0.08962151  0.58980233  0.98908665  1  1.582096  0  0.215281  0.598084  0  4.1569  0
C  C42  1  0.91093056  0.57930144  0.01071474  1  1.595943  0  0.21579  0.599892  0  4.155313  0
C  C43  1  0.91073338  0.41028045  0.01062392  1  1.58438  0  0.215501  0.599462  0  4.156463  0
C  C44  1  0.83526123  0.37220732  0.25575873  1  0.484118  0  0.062566  0.121243  0  3.894939  0
C  C45  1  0.79104668  0.32963796  0.34084565  1  -0.00147  0  -0.068789  -0.174433  0  3.926089  0
C  C46  1  0.82274507  0.30527165  0.38926002  1  0.429075  0  0.103826  0.150459  0  4.020116  0
C  C47  1  0.89849721  0.32490842  0.34969502  1  0.194159  0  0.030423  0.001786  0  3.981775  0
C  C48  1  0.93940680  0.36868197  0.26217557  1  0.622934  0  0.154253  0.227723  0  4.038857  0
C  C49  1  0.60565369  0.17901382  0.64232394  1  -0.006957  0  -0.075401  -0.253811  0  3.892829  0
C  C50  1  0.68079371  0.20073801  0.59856979  1  0.381323  0  0.107187  0.240164  0  4.030538  0
C  C51  1  0.71685735  0.17889390  0.64183440  1  0.125577  0  -0.082786  -0.264527  0  3.911627  0
C  C52  1  0.67565808  0.13589924  0.72770241  1  0.578762  0  0.155988  0.314239  0  4.033468  0
C  C53  1  0.56911700  0.13576824  0.72873302  1  0.5958  0  0.159363  0.312507  0  4.034743  0
C  C54  1  0.16499164  0.62799388  0.74405344  1  0.459159  0  0.063532  0.122883  0  3.89368  0
C  C55  1  0.20907811  0.67053388  0.65894781  1  -0.024924  0  -0.068942  -0.175093  0  3.926351  0
C  C56  1  0.17721194  0.69466602  0.61070257  1  0.425858  0  0.10344  0.150463  0  4.021073  0
C  C57  1  0.10145858  0.67484406  0.65042514  1  0.196593  0  0.029911  0.001297  0  3.983533  0
C  C58  1  0.06068104  0.63114547  0.73793782  1  0.62345  0  0.153927  0.227687  0  4.038527  0
C  C59  1  0.39401756  0.82119314  0.35756907  1  0.006744  0  -0.075102  -0.253206  0  3.895448  0
C  C60  1  0.31889149  0.79933360  0.40130621  1  0.363509  0  0.106414  0.239005  0  4.031688  0
C  C61  1  0.28279948  0.82098287  0.35806600  1  0.131051  0  -0.083094  -0.264942  0  3.910603  0
C  C62  1  0.32399550  0.86392780  0.27218817  1  0.566186  0  0.156277  0.314919  0  4.030858  0
C  C63  1  0.43055588  0.86442989  0.27116679  1  0.618137  0  0.158402  0.311372  0  4.035894  0
C  C64  1  0.63246493  0.13367880  0.99906619  1  0.010968  0  -0.015175  0.00394  0  3.97563  0
C  C65  1  0.86341439  0.36285119  0.00841341  1  0.046007  0  -0.015906  0.000503  0  3.984542  0
C  C66  1  0.68972290  0.19386644  0.92554677  1  -0.033772  0  -0.098399  -0.22563  0  3.9988  0
C  C67  1  0.73369480  0.23723822  0.92793709  1  0.424634  0  0.099657  0.243889  0  3.994945  0
C  C68  1  0.80638791  0.30229692  0.08157690  1  -0.015802  0  -0.097497  -0.224059  0  4.007749  0
C  C69  1  0.76296389  0.25891341  0.07872283  1  0.409555  0  0.099053  0.241544  0  4.000224  0
C  C70  1  0.87492124  0.37783118  0.93339351  1  -0.091964  0  -0.093016  -0.105339  0  4.006326  0
C  C71  1  0.83056331  0.33363549  0.93203512  1  -0.022208  0  -0.093771  -0.122792  0  3.984262  0
C  C72  1  0.62139596  0.11898283  0.07378398  1  -0.036691  0  -0.09394  -0.107277  0  4.012851  0
C  C73  1  0.66615407  0.16319681  0.07465040  1  -0.055469  0  -0.095435  -0.124285  0  3.991163  0
C  C74  1  0.72502285  0.22506833  0.00174203  1  0.035485  0  -0.010447  -0.01862  0  3.961767  0
C  C75  1  0.77181969  0.27145795  0.00469240  1  0.012435  0  -0.009899  -0.016031  0  3.958424  0
C  C76  1  0.36736747  0.86582000  0.00170656  1  -0.006662  0  -0.015689  0.003347  0  3.977376  0
C  C77  1  0.13724469  0.63735102  0.99085092  1  -0.00785  0  -0.015561  0.000836  0  3.984349  0
C  C78  1  0.37908459  0.88129958  0.92661954  1  0.001174  0  -0.098773  -0.224308  0  4.006974  0
C  C79  1  0.33464127  0.83717846  0.92561316  1  0.355934  0  0.09851  0.241123  0  4.000827  0
C  C80  1  0.12510699  0.62150733  0.06627854  1  0.034453  0  -0.098581  -0.22261  0  4.001685  0
C  C81  1  0.16935279  0.66539962  0.06779215  1  0.361895  0  0.099325  0.243072  0  3.99799  0
C  C82  1  0.19461691  0.69820809  0.91811629  1  0.007985  0  -0.093136  -0.108452  0  4.013496  0
C  C83  1  0.23815875  0.74153472  0.92116563  1  -0.093782  0  -0.094877  -0.123186  0  3.98912  0
C  C84  1  0.30994130  0.80515453  0.07480285  1  -0.014472  0  -0.092362  -0.106056  0  4.00533  0
C  C85  1  0.26598629  0.76164326  0.07228294  1  -0.030137  0  -0.094747  -0.123912  0  3.984241  0
C  C86  1  0.27574496  0.77503506  0.99744332  1  0.029965  0  -0.010283  -0.017151  0  3.959833  0
C  C87  1  0.22820683  0.72772928  0.99620146  1  0.025677  0  -0.00955  -0.016998  0  3.959157  0
C  C88  1  0.36744710  0.13258637  0.00168079  1  -0.02533  0  -0.015306  0.003514  0  3.976096  0
C  C89  1  0.13649230  0.37107764  0.99070284  1  -0.019393  0  -0.015715  -7.9e-05  0  3.986517  0
C  C90  1  0.37927406  0.19219139  0.92658287  1  0.037527  0  -0.099084  -0.225085  0  4.007368  0
C  C91  1  0.33454838  0.23703397  0.92556725  1  0.385297  0  0.098717  0.242434  0  3.999839  0
C  C92  1  0.12422231  0.31149215  0.06614914  1  0.022936  0  -0.098879  -0.223134  0  4.00194  0
C  C93  1  0.16847864  0.26610051  0.06770481  1  0.432244  0  0.099412  0.242935  0  3.997923  0
C  C94  1  0.19393867  0.38290267  0.91799514  1  0.009063  0  -0.092927  -0.10754  0  4.013746  0
C  C95  1  0.23751890  0.33656104  0.92108586  1  -0.08224  0  -0.094679  -0.123704  0  3.989152  0
C  C96  1  0.30967224  0.11992068  0.07477454  1  -0.023408  0  -0.092419  -0.106713  0  4.005322  0
C  C97  1  0.26547475  0.16572123  0.07223672  1  -0.045801  0  -0.094415  -0.122324  0  3.983161  0
C  C98  1  0.27529322  0.22710762  0.99739526  1  0.015391  0  -0.010948  -0.018876  0  3.960371  0
C  C99  1  0.22753439  0.27543118  0.99613298  1  -0.009876  0  -0.009798  -0.016667  0  3.960259  0
C  C100  1  0.63175228  0.86656736  0.99900283  1  -0.063035  0  -0.015001  0.004738  0  3.975279  0
C  C101  1  0.86299616  0.62832977  0.00852864  1  0.011332  0  -0.016128  -0.001273  0  3.987137  0
C  C102  1  0.68882617  0.87957202  0.92551134  1  0.007783  0  -0.098416  -0.224851  0  3.9998  0
C  C103  1  0.73249367  0.83351105  0.92793252  1  0.429963  0  0.098876  0.241611  0  3.997368  0
C  C104  1  0.80544968  0.61533278  0.08167410  1  -0.010531  0  -0.097782  -0.223345  0  4.008641  0
C  C105  1  0.76148624  0.66104487  0.07879456  1  0.392903  0  0.098853  0.241719  0  4.00114  0
C  C106  1  0.87432025  0.68807384  0.93349466  1  -0.02517  0  -0.093275  -0.104982  0  4.007204  0
C  C107  1  0.82950649  0.73317196  0.93210426  1  -0.065078  0  -0.094495  -0.123312  0  3.984345  0
C  C108  1  0.62051026  0.80650964  0.07374729  1  0.020585  0  -0.094016  -0.107866  0  4.011619  0
C  C109  1  0.66494299  0.76110733  0.07464785  1  -0.057444  0  -0.094714  -0.122582  0  3.989335  0
C  C110  1  0.72366930  0.77186590  0.00175943  1  0.031744  0  -0.010779  -0.018391  0  3.962605  0
C  C111  1  0.77043658  0.72249714  0.00475666  1  0.008967  0  -0.009188  -0.016686  0  3.959954  0
N  N112  1  0.90810950  0.39127265  0.21735960  1  -1.201467  0  -0.301808  -0.224922  0  3.460783  0
N  N113  1  0.78419163  0.26166487  0.47636140  1  -0.462239  0  -0.126909  -0.085158  0  3.270338  0
N  N114  1  0.71633632  0.24473051  0.51076096  1  -0.459013  0  -0.124005  -0.107078  0  3.173908  0
N  N115  1  0.60250146  0.11389647  0.77206130  1  -1.204123  0  -0.29349  -0.301805  0  3.338587  0
N  N116  1  0.09213536  0.60878144  0.78258122  1  -1.194039  0  -0.302166  -0.224519  0  3.459834  0
N  N117  1  0.21559355  0.73819342  0.52361303  1  -0.475259  0  -0.127445  -0.08561  0  3.270295  0
N  N118  1  0.28345701  0.75543500  0.48908622  1  -0.445262  0  -0.124484  -0.107475  0  3.176087  0
N  N119  1  0.39715868  0.88609646  0.22786523  1  -1.196466  0  -0.292564  -0.299434  0  3.336961  0
Cl  Cl120  1  0.03110980  0.39373123  0.21163779  1  -0.063807  0  0.06855  0.0111  0  1.5905  0
Cl  Cl121  1  0.94028808  0.29716309  0.40485777  1  -0.128311  0  0.026874  -0.027539  0  1.550877  0
Cl  Cl122  1  0.47700651  0.10964466  0.78144476  1  -0.088184  0  0.065415  -0.003484  0  1.531535  0
Cl  Cl123  1  0.72077350  0.10970238  0.77943562  1  -0.113752  0  0.061254  -0.004632  0  1.540557  0
Cl  Cl124  1  0.96898440  0.60593935  0.78865388  1  -0.066126  0  0.069073  0.009467  0  1.595436  0
Cl  Cl125  1  0.05949482  0.70232361  0.59543784  1  -0.129931  0  0.025452  -0.029226  0  1.551489  0
Cl  Cl126  1  0.52264695  0.89081908  0.21847367  1  -0.101078  0  0.065684  -0.005292  0  1.536774  0
Cl  Cl127  1  0.27888532  0.88980397  0.22044903  1  -0.115544  0  0.061367  -0.006596  0  1.541992  0
O  O128  1  0.46568805  0.96822011  0.93226475  1  -1.177068  0  -0.323493  -0.562808  0  2.367229  0
O  O129  1  0.40201956  0.89683518  0.07296452  1  -1.162087  0  -0.321178  -0.559616  0  2.369505  0
O  O130  1  0.40174544  0.03007145  0.07293414  1  -1.171368  0  -0.321397  -0.559944  0  2.370101  0
O  O131  1  0.46646664  0.10021270  0.93222653  1  -1.172579  0  -0.323183  -0.562547  0  2.36549  0
O  O132  1  0.53363532  0.03215261  0.06801516  1  -1.173728  0  -0.322452  -0.563464  0  2.370726  0
O  O133  1  0.59847416  0.10258681  0.92731221  1  -1.16296  0  -0.32295  -0.560454  0  2.36637  0
O  O134  1  0.59775614  0.96928941  0.92716152  1  -1.172575  0  -0.322579  -0.559519  0  2.363304  0
O  O135  1  0.53396289  0.90029330  0.06784907  1  -1.172234  0  -0.322435  -0.563306  0  2.372696  0
O  O136  1  0.03674325  0.40333704  0.05876046  1  -1.179199  0  -0.322667  -0.561811  0  2.368663  0
O  O137  1  0.10427625  0.47568004  0.91841839  1  -1.168472  0  -0.319103  -0.549304  0  2.307988  0
O  O138  1  0.10492459  0.60500358  0.91859950  1  -1.160908  0  -0.318717  -0.549244  0  2.311537  0
O  O139  1  0.03719980  0.53741300  0.05892642  1  -1.181879  0  -0.322746  -0.56155  0  2.368133  0
O  O140  1  0.96359827  0.59681583  0.94097282  1  -1.175099  0  -0.321405  -0.562123  0  2.372456  0
O  O141  1  0.89568148  0.52422365  0.08127769  1  -1.17558  0  -0.320611  -0.549872  0  2.30488  0
O  O142  1  0.89543873  0.39485233  0.08121126  1  -1.163966  0  -0.320483  -0.549963  0  2.305288  0
O  O143  1  0.96299961  0.46287006  0.94086735  1  -1.176887  0  -0.321247  -0.562281  0  2.374105  0
F  F144  1  0.78796083  0.29467142  0.85152708  1  -0.640964  0  -0.103087  -0.152505  0  1.355348  0
F  F145  1  0.70908378  0.20105765  0.15510547  1  -0.64235  0  -0.102557  -0.152427  0  1.361373  0
F  F146  1  0.35228825  0.85857824  0.84762516  1  -0.636173  0  -0.10245  -0.151168  0  1.360591  0
F  F147  1  0.15171656  0.64374527  0.14580472  1  -0.634977  0  -0.101982  -0.151037  0  1.35867  0
F  F148  1  0.35226735  0.29357079  0.84757689  1  -0.639191  0  -0.10232  -0.151453  0  1.361033  0
F  F149  1  0.15066447  0.20971267  0.14573765  1  -0.6389  0  -0.102064  -0.150856  0  1.357506  0
F  F150  1  0.78665033  0.85223469  0.85153227  1  -0.640076  0  -0.102542  -0.151384  0  1.356588  0
F  F151  1  0.70692676  0.64197673  0.15517343  1  -0.637286  0  -0.102168  -0.152227  0  1.361352  0
