# generated using pymatgen
data_Zn4H18C24N6O13
_symmetry_space_group_name_H-M   'P 1'
_cell_length_a   16.57332269
_cell_length_b   16.58501865
_cell_length_c   16.50773010
_cell_angle_alpha   117.66492534
_cell_angle_beta   121.13093107
_cell_angle_gamma   90.78997645
_symmetry_Int_Tables_number   1
_chemical_formula_structural   Zn4H18C24N6O13
_chemical_formula_sum   'Zn8 H36 C48 N12 O26'
_cell_volume   3241.45020169
_cell_formula_units_Z   2
loop_
 _symmetry_equiv_pos_site_id
 _symmetry_equiv_pos_as_xyz
  1  'x, y, z'
loop_
 _atom_site_type_symbol
 _atom_site_label
 _atom_site_symmetry_multiplicity
 _atom_site_fract_x
 _atom_site_fract_y
 _atom_site_fract_z
 _atom_site_occupancy
 _atom_site_pbe_bader_charge
 _atom_site_pbe_bader_spin_density
 _atom_site_pbe_cm5_charge
 _atom_site_pbe_ddec_charge
 _atom_site_pbe_ddec_spin_density
 _atom_site_pbe_ddec_sum_bond_order
 _atom_site_pbe_magmom
Zn  Zn0  1  0.03221371  0.93516483  0.07643267  1  1.309655  0  0.668968  0.956875  0  2.349512  0
Zn  Zn1  1  0.03102251  0.13444810  0.10049256  1  1.320325  0  0.682513  0.980486  0  2.333092  0
Zn  Zn2  1  0.83371378  0.94822363  0.89169165  1  1.309657  0  0.676101  0.982871  0  2.290822  0
Zn  Zn3  1  0.04231680  0.96511674  0.91005668  1  1.316398  0  0.677966  0.974592  0  2.378247  0
Zn  Zn4  1  0.43027696  0.55636132  0.89367593  1  1.309674  0  0.673826  0.974933  0  2.331746  0
Zn  Zn5  1  0.43936248  0.36258801  0.89236653  1  1.324559  0  0.68275  0.988451  0  2.326116  0
Zn  Zn6  1  0.46370161  0.55676623  0.10815532  1  1.321126  0  0.681664  0.981934  0  2.354625  0
Zn  Zn7  1  0.62838537  0.54564611  0.07722498  1  1.306792  0  0.667236  0.94216  0  2.409472  0
H  H8  1  0.88163754  0.32373625  0.54020652  1  0.43376  0  0.283772  0.242016  0  1.027513  0
H  H9  1  0.92664362  0.26525876  0.60355576  1  0.39807  0  0.285941  0.236452  0  1.011523  0
H  H10  1  0.89299443  0.15596607  0.43992322  1  0.470074  0  0.285045  0.198339  0  1.074732  0
H  H11  1  0.11782868  0.35093736  0.65302626  1  0.085262  0  0.098697  0.10555  0  1.041993  0
H  H12  1  0.26215992  0.23586225  0.48921997  1  0.101308  0  0.108219  0.119243  0  0.988534  0
H  H13  1  0.94524928  0.10662072  0.30671060  1  0.062246  0  0.103344  0.111357  0  1.011064  0
H  H14  1  0.77538675  0.37404553  0.81686203  1  0.405899  0  0.300273  0.256165  0  0.953918  0
H  H15  1  0.69938966  0.30595568  0.67683805  1  0.420834  0  0.306993  0.268827  0  0.939409  0
H  H16  1  0.85391640  0.45022108  0.75302271  1  0.467058  0  0.291869  0.213563  0  1.055271  0
H  H17  1  0.66411811  0.43894672  0.80357989  1  0.046558  0  0.101482  0.101074  0  1.03449  0
H  H18  1  0.68790349  0.73690921  0.92462882  1  0.08032  0  0.107682  0.119701  0  0.996456  0
H  H19  1  0.86856304  0.61572812  0.81533823  1  0.068833  0  0.10658  0.119364  0  0.995262  0
H  H20  1  0.59138851  0.02652463  0.21910951  1  0.402154  0  0.29533  0.251004  0  0.968019  0
H  H21  1  0.62809674  0.14166797  0.31565355  1  0.411231  0  0.295965  0.262707  0  0.959328  0
H  H22  1  0.61945439  0.02998134  0.39217521  1  0.399118  0  0.29986  0.228214  0  0.958733  0
H  H23  1  0.55235415  0.86499012  0.24072071  1  0.06187  0  0.102457  0.110486  0  1.02639  0
H  H24  1  0.23687403  0.76095269  0.97407158  1  0.084294  0  0.111998  0.1193  0  0.979932  0
H  H25  1  0.38965963  0.06471538  0.24180370  1  0.093827  0  0.11193  0.125703  0  0.98278  0
H  H26  1  0.81326462  0.42325157  0.42637675  1  0.386892  0  0.298268  0.258354  0  0.950327  0
H  H27  1  0.70747330  0.36531203  0.39170375  1  0.405213  0  0.302049  0.261957  0  0.952681  0
H  H28  1  0.82681619  0.25199482  0.36760525  1  0.47281  0  0.292967  0.203604  0  1.06772  0
H  H29  1  0.68086889  0.37508830  0.23221300  1  0.067212  0  0.100406  0.10364  0  1.02803  0
H  H30  1  0.69232273  0.21282661  0.94682910  1  0.089907  0  0.106351  0.117294  0  0.995971  0
H  H31  1  0.84267766  0.17395434  0.22460389  1  0.050591  0  0.102278  0.108226  0  1.033705  0
H  H32  1  0.04260057  0.48425737  0.87148265  1  0.394762  0  0.301105  0.258366  0  0.944067  0
H  H33  1  0.00443891  0.41827989  0.73723246  1  0.411954  0  0.292301  0.250076  0  1.010491  0
H  H34  1  0.89873671  0.32975180  0.77664546  1  0.474726  0  0.293688  0.214016  0  1.055988  0
H  H35  1  0.15426857  0.40290333  0.86077442  1  0.05539  0  0.102191  0.104854  0  1.028436  0
H  H36  1  0.25581272  0.23807480  0.01126820  1  0.08215  0  0.108565  0.120164  0  0.989981  0
H  H37  1  0.95158719  0.23805978  0.86252255  1  0.055698  0  0.104843  0.117886  0  0.998109  0
H  H38  1  0.84158349  0.98419691  0.37193785  1  0.395599  0  0.301466  0.258643  0  0.944369  0
H  H39  1  0.75679977  0.04215291  0.36555046  1  0.459201  0  0.278534  0.234694  0  1.056354  0
H  H40  1  0.90322543  0.09449432  0.58425857  1  0.44185  0  0.319579  0.245779  0  0.942193  0
H  H41  1  0.73157275  0.86127917  0.31673211  1  0.080766  0  0.100653  0.102944  0  1.04173  0
H  H42  1  0.71251665  0.73110862  0.48178319  1  0.066805  0  0.109868  0.123087  0  0.989782  0
H  H43  1  0.88828563  0.03226103  0.68010095  1  0.052955  0  0.103888  0.110405  0  1.011393  0
C  C44  1  0.02147542  0.22867288  0.48033639  1  0.310895  0  0.090878  0.218112  0  4.050654  0
C  C45  1  0.11385234  0.29821156  0.57907845  1  -0.001702  0  -0.097389  -0.198263  0  3.936531  0
C  C46  1  0.20021480  0.29721745  0.58304091  1  -0.013393  0  -0.012891  0.001594  0  4.005209  0
C  C47  1  0.19525767  0.23350835  0.48689052  1  0.003437  0  -0.09191  -0.15135  0  3.954632  0
C  C48  1  0.10198297  0.16671469  0.38675101  1  -0.022484  0  -0.014489  -0.003057  0  4.009614  0
C  C49  1  0.01672113  0.16103229  0.38473924  1  -0.001898  0  -0.095597  -0.212734  0  3.946832  0
C  C50  1  0.09001363  0.10608909  0.27776424  1  1.535207  0  0.230538  0.620412  0  4.119607  0
C  C51  1  0.29837619  0.36411486  0.69511079  1  1.56466  0  0.232836  0.62155  0  4.130997  0
C  C52  1  0.76268195  0.51390716  0.79241382  1  0.381611  0  0.090705  0.207808  0  4.117394  0
C  C53  1  0.69587201  0.50645740  0.81845096  1  -0.000946  0  -0.10592  -0.224328  0  3.974669  0
C  C54  1  0.67050082  0.58646962  0.86692668  1  0.011562  0  -0.015412  0.001455  0  4.015236  0
C  C55  1  0.70853929  0.67495030  0.88801784  1  -0.025742  0  -0.094701  -0.157128  0  3.9485  0
C  C56  1  0.78202988  0.68449932  0.87111278  1  0.032928  0  -0.016147  -0.006554  0  4.010258  0
C  C57  1  0.80946531  0.60575198  0.82484980  1  -0.034182  0  -0.093981  -0.202277  0  3.928232  0
C  C58  1  0.83903608  0.78267846  0.91410450  1  1.532608  0  0.231688  0.618112  0  4.133706  0
C  C59  1  0.61378210  0.57673466  0.91058022  1  1.54124  0  0.232984  0.621219  0  4.129434  0
C  C60  1  0.48166564  0.97392509  0.24729219  1  0.340053  0  0.078618  0.191661  0  4.074081  0
C  C61  1  0.48243385  0.87898445  0.20058994  1  -0.059455  0  -0.091725  -0.204301  0  3.945747  0
C  C62  1  0.39478152  0.80271077  0.10215432  1  -0.031847  0  -0.009369  0.008672  0  4.002859  0
C  C63  1  0.30512452  0.82022932  0.05173601  1  0.01261  0  -0.07964  -0.135825  0  3.932035  0
C  C64  1  0.30257506  0.91391695  0.10459731  1  -0.037296  0  -0.006537  0.005109  0  3.976488  0
C  C65  1  0.39071902  0.99128029  0.20088790  1  -0.001261  0  -0.082824  -0.185212  0  3.920135  0
C  C66  1  0.20171111  0.92632647  0.05891387  1  1.599173  0  0.235986  0.621547  0  4.143589  0
C  C67  1  0.40034471  0.70296646  0.05350324  1  1.589715  0  0.231265  0.617409  0  4.16254  0
C  C68  1  0.75526604  0.26853205  0.23528896  1  0.369262  0  0.088885  0.208229  0  4.110757  0
C  C69  1  0.70422005  0.31963827  0.18915849  1  -0.051025  0  -0.105405  -0.224204  0  3.963424  0
C  C70  1  0.68188477  0.29876359  0.08583357  1  0.019837  0  -0.014427  0.000755  0  4.00862  0
C  C71  1  0.71099100  0.22885400  0.02760337  1  -0.021333  0  -0.09545  -0.161038  0  3.949924  0
C  C72  1  0.77174708  0.18628727  0.08082758  1  -0.01926  0  -0.013856  0.002024  0  4.005845  0
C  C73  1  0.79320742  0.20561855  0.18278193  1  0.010022  0  -0.095925  -0.202645  0  3.933538  0
C  C74  1  0.82644228  0.12852210  0.03979414  1  1.566826  0  0.233323  0.620248  0  4.139757  0
C  C75  1  0.62937849  0.35705222  0.04215646  1  1.55259  0  0.230887  0.61726  0  4.130857  0
C  C76  1  0.04187971  0.32043866  0.84918440  1  0.343476  0  0.089059  0.210191  0  4.124526  0
C  C77  1  0.13856220  0.35451514  0.88211992  1  -0.01893  0  -0.10818  -0.238569  0  3.977009  0
C  C78  1  0.21474254  0.32553380  0.94082909  1  -0.021285  0  -0.011533  0.015254  0  4.016028  0
C  C79  1  0.19685969  0.26199804  0.96722322  1  0.009773  0  -0.098811  -0.169852  0  3.963988  0
C  C80  1  0.10172178  0.23210337  0.93950365  1  -0.040931  0  -0.013581  0.007725  0  4.019556  0
C  C81  1  0.02476902  0.26091611  0.88180705  1  0.01994  0  -0.105768  -0.235343  0  3.961167  0
C  C82  1  0.08456944  0.16830774  0.97400518  1  1.551928  0  0.232881  0.62022  0  4.141783  0
C  C83  1  0.31664670  0.36858126  0.97689942  1  1.590375  0  0.237552  0.633763  0  4.128271  0
C  C84  1  0.80862523  0.95930348  0.49854142  1  0.363182  0  0.090255  0.205126  0  4.123503  0
C  C85  1  0.75057983  0.86956558  0.39455982  1  -0.000123  0  -0.107585  -0.232462  0  3.975223  0
C  C86  1  0.71720325  0.78832555  0.38997596  1  0.001188  0  -0.015455  -0.000558  0  4.012169  0
C  C87  1  0.74042419  0.79471727  0.48748141  1  1e-06  0  -0.091075  -0.152803  0  3.942234  0
C  C88  1  0.80396416  0.88286712  0.59173064  1  0.023547  0  -0.00943  0.013412  0  4.000215  0
C  C89  1  0.83786922  0.96416026  0.59784866  1  -0.043342  0  -0.094077  -0.209936  0  3.933589  0
C  C90  1  0.84380656  0.89176285  0.70143859  1  1.592732  0  0.235182  0.627344  0  4.140138  0
C  C91  1  0.65960230  0.69254427  0.27991559  1  1.519436  0  0.22528  0.604728  0  4.138697  0
N  N92  1  0.93814394  0.29617941  0.56745546  1  -0.795773  0  -0.531043  -0.487861  0  3.254077  0
N  N93  1  0.93155055  0.22472391  0.47028191  1  -0.833126  0  -0.366278  -0.209142  0  3.521667  0
N  N94  1  0.77012891  0.35335150  0.74473266  1  -0.784951  0  -0.510146  -0.472999  0  3.259888  0
N  N95  1  0.78630804  0.43496167  0.74014184  1  -0.828312  0  -0.368913  -0.208937  0  3.545487  0
N  N96  1  0.62900598  0.07575888  0.30452964  1  -0.785882  0  -0.517727  -0.482671  0  3.210976  0
N  N97  1  0.57424674  0.05254943  0.34176943  1  -0.751941  0  -0.393613  -0.275842  0  3.341952  0
N  N98  1  0.77776086  0.36421218  0.41584231  1  -0.761497  0  -0.519534  -0.488805  0  3.248518  0
N  N99  1  0.77122099  0.27746556  0.33101796  1  -0.838811  0  -0.371866  -0.214221  0  3.569312  0
N  N100  1  0.98434001  0.43035971  0.79024104  1  -0.757231  0  -0.5136  -0.468239  0  3.251503  0
N  N101  1  0.96384613  0.34359459  0.78429407  1  -0.853386  0  -0.366859  -0.215468  0  3.58497  0
N  N102  1  0.82801560  0.04258912  0.41699145  1  -0.788905  0  -0.510812  -0.458341  0  3.31938  0
N  N103  1  0.83857281  0.04415254  0.50808936  1  -0.83245  0  -0.360679  -0.21081  0  3.578176  0
O  O104  1  0.98065898  0.99519253  0.98926219  1  -1.222707  0  -0.579667  -1.046622  0  2.557464  0
O  O105  1  0.12457987  0.15006285  0.24985363  1  -1.1728  0  -0.327131  -0.567716  0  2.255491  0
O  O106  1  0.04366993  0.01523261  0.21784898  1  -1.149771  0  -0.313056  -0.535724  0  2.258601  0
O  O107  1  0.36260615  0.32565930  0.73379309  1  -1.171366  0  -0.323845  -0.561501  0  2.272973  0
O  O108  1  0.30928754  0.45386926  0.74482113  1  -1.162724  0  -0.310793  -0.537653  0  2.289974  0
O  O109  1  0.78971004  0.83748020  0.89346497  1  -1.173261  0  -0.314972  -0.549514  0  2.283798  0
O  O110  1  0.93426962  0.80391178  0.97099508  1  -1.158906  0  -0.319474  -0.552074  0  2.302476  0
O  O111  1  0.65189577  0.54215192  0.97182793  1  -1.159882  0  -0.31997  -0.550604  0  2.33511  0
O  O112  1  0.53647049  0.60238889  0.88649993  1  -1.165388  0  -0.313533  -0.544269  0  2.269902  0
O  O113  1  0.15791591  0.92289125  0.96654810  1  -1.155657  0  -0.309886  -0.535366  0  2.289724  0
O  O114  1  0.16767235  0.93599257  0.11533830  1  -1.167261  0  -0.307575  -0.538401  0  2.297652  0
O  O115  1  0.42064979  0.66904158  0.11434725  1  -1.163696  0  -0.313422  -0.54761  0  2.314155  0
O  O116  1  0.38632518  0.66311850  0.95810422  1  -1.16444  0  -0.313154  -0.539822  0  2.292176  0
O  O117  1  0.77731154  0.04993654  0.94184657  1  -1.16012  0  -0.3128  -0.541218  0  2.263405  0
O  O118  1  0.92139599  0.16541614  0.11164685  1  -1.16413  0  -0.314599  -0.550983  0  2.329207  0
O  O119  1  0.66821268  0.44869042  0.11278177  1  -1.171845  0  -0.314589  -0.543036  0  2.306445  0
O  O120  1  0.55047151  0.31210805  0.93991425  1  -1.156399  0  -0.315806  -0.547334  0  2.279466  0
O  O121  1  0.09579579  0.08674970  0.93153600  1  -1.171245  0  -0.313413  -0.550031  0  2.312929  0
O  O122  1  0.06186052  0.20182401  0.04382052  1  -1.137002  0  -0.312929  -0.54112  0  2.286748  0
O  O123  1  0.36660787  0.45295837  0.06831369  1  -1.173673  0  -0.318139  -0.548808  0  2.300731  0
O  O124  1  0.34233316  0.31981454  0.91360447  1  -1.167518  0  -0.310049  -0.543372  0  2.282155  0
O  O125  1  0.79061180  0.90864817  0.73793966  1  -1.16475  0  -0.306919  -0.534891  0  2.273664  0
O  O126  1  0.93002029  0.88309078  0.74897602  1  -1.17732  0  -0.321605  -0.554843  0  2.301702  0
O  O127  1  0.68090690  0.67733238  0.21070649  1  -1.160224  0  -0.316837  -0.539571  0  2.284196  0
O  O128  1  0.59399110  0.63159373  0.26145706  1  -1.167271  0  -0.320377  -0.555988  0  2.276838  0
O  O129  1  0.48157131  0.50342253  0.98789110  1  -1.227142  0  -0.581568  -1.046455  0  2.557588  0
