# generated using pymatgen
data_KH7C4(SO)2
_symmetry_space_group_name_H-M   'P 1'
_cell_length_a   6.69614213
_cell_length_b   9.50011498
_cell_length_c   12.79242508
_cell_angle_alpha   89.99983096
_cell_angle_beta   89.99981972
_cell_angle_gamma   104.90073234
_symmetry_Int_Tables_number   1
_chemical_formula_structural   KH7C4(SO)2
_chemical_formula_sum   'K4 H28 C16 S8 O8'
_cell_volume   786.41375547
_cell_formula_units_Z   4
loop_
 _symmetry_equiv_pos_site_id
 _symmetry_equiv_pos_as_xyz
  1  'x, y, z'
loop_
 _atom_site_type_symbol
 _atom_site_label
 _atom_site_symmetry_multiplicity
 _atom_site_fract_x
 _atom_site_fract_y
 _atom_site_fract_z
 _atom_site_occupancy
 _atom_site_hle17_bader_spin_density
 _atom_site_hle17_ddec_charge
 _atom_site_hle17_ddec_spin_density
 _atom_site_hle17_ddec_sum_bond_order
 _atom_site_hle17_magmom
 _atom_site_hse06_10hf_bader_spin_density
 _atom_site_hse06_10hf_ddec_charge
 _atom_site_hse06_10hf_ddec_spin_density
 _atom_site_hse06_10hf_ddec_sum_bond_order
 _atom_site_hse06_10hf_magmom
 _atom_site_hse06_bader_spin_density
 _atom_site_hse06_ddec_charge
 _atom_site_hse06_ddec_spin_density
 _atom_site_hse06_ddec_sum_bond_order
 _atom_site_hse06_magmom
 _atom_site_pbe_bader_spin_density
 _atom_site_pbe_cm5_charge
 _atom_site_pbe_ddec_charge
 _atom_site_pbe_ddec_spin_density
 _atom_site_pbe_ddec_sum_bond_order
 _atom_site_pbe_magmom
K  K0  1  0.83564857  0.47637544  0.63537635  1  0  0.846118  0  0.563364  0  0  0.769588  0  0.785617  0  0  0.782858  0  0.769525  0  0  0.597464  0.759267  0  0.797616  0
K  K1  1  0.66435618  0.52362166  0.13537585  1  0  0.846126  0  0.563354  0  0  0.769598  0  0.785615  0  0  0.782842  0  0.769561  0  0  0.597456  0.759281  0  0.797605  0
K  K2  1  0.16436408  0.52362317  0.36462522  1  0  0.846118  0  0.563366  0  0  0.76963  0  0.785543  0  0  0.782897  0  0.769456  0  0  0.597464  0.75931  0  0.797536  0
K  K3  1  0.33564046  0.47637808  0.86462415  1  0  0.84611  0  0.563365  0  0  0.769612  0  0.785571  0  0  0.782876  0  0.769486  0  0  0.597463  0.759295  0  0.797568  0
H  H4  1  0.80763231  0.00503092  0.52036039  1  0  0.048466  0  0.940072  0  0  0.062108  0  1.010592  0  0  0.062234  0  1.010373  0  0  0.098146  0.061841  0  1.011249  0
H  H5  1  0.69236221  0.99496902  0.02036037  1  0  0.048452  0  0.940055  0  0  0.062099  0  1.010581  0  0  0.062224  0  1.010366  0  0  0.098148  0.061832  0  1.011238  0
H  H6  1  0.19236663  0.99497100  0.47963727  1  0  0.048422  0  0.940029  0  0  0.062065  0  1.010589  0  0  0.062181  0  1.010388  0  0  0.098127  0.061804  0  1.011231  0
H  H7  1  0.30763443  0.00503073  0.97964198  1  0  0.048434  0  0.940116  0  0  0.062122  0  1.010585  0  0  0.062246  0  1.010368  0  0  0.098153  0.061854  0  1.01124  0
H  H8  1  0.99790588  0.17209760  0.49377009  1  0  0.052259  0  0.933962  0  0  0.06091  0  1.010225  0  0  0.06247  0  1.008215  0  0  0.097971  0.059824  0  1.011724  0
H  H9  1  0.50208980  0.82790087  0.99376958  1  0  0.052237  0  0.933929  0  0  0.060884  0  1.01021  0  0  0.062444  0  1.008202  0  0  0.097965  0.059798  0  1.011705  0
H  H10  1  0.00209564  0.82790322  0.50622992  1  0  0.052236  0  0.933987  0  0  0.060902  0  1.010246  0  0  0.062461  0  1.008236  0  0  0.097969  0.059814  0  1.011748  0
H  H11  1  0.49790494  0.17209779  0.00623590  1  0  0.052348  0  0.933941  0  0  0.060995  0  1.010189  0  0  0.062553  0  1.008181  0  0  0.097991  0.05991  0  1.011685  0
H  H12  1  0.68772354  0.12002114  0.37246893  1  0  0.07415  0  0.928928  0  0  0.091401  0  0.989308  0  0  0.09118  0  0.989445  0  0  0.104404  0.091418  0  0.989555  0
H  H13  1  0.81227281  0.87998125  0.87246623  1  0  0.074194  0  0.928895  0  0  0.091484  0  0.989256  0  0  0.091266  0  0.989388  0  0  0.104448  0.091505  0  0.989503  0
H  H14  1  0.31228149  0.87998512  0.62752951  1  0  0.07412  0  0.928896  0  0  0.091377  0  0.989271  0  0  0.091151  0  0.989403  0  0  0.104402  0.091396  0  0.989521  0
H  H15  1  0.18771448  0.12001743  0.12753300  1  0  0.074195  0  0.928867  0  0  0.091455  0  0.98925  0  0  0.091232  0  0.989383  0  0  0.104425  0.091478  0  0.989497  0
H  H16  1  0.52644043  0.13060428  0.48163835  1  0  0.067243  0  0.934934  0  0  0.082758  0  0.998872  0  0  0.083004  0  0.998242  0  0  0.103782  0.082403  0  0.999841  0
H  H17  1  0.97355587  0.86939971  0.98163383  1  0  0.067277  0  0.934974  0  0  0.082797  0  0.998918  0  0  0.083039  0  0.998296  0  0  0.10381  0.082446  0  0.999888  0
H  H18  1  0.47356040  0.86939873  0.51836009  1  0  0.067221  0  0.934984  0  0  0.082724  0  0.998945  0  0  0.082962  0  0.998316  0  0  0.103785  0.082374  0  0.999912  0
H  H19  1  0.02644037  0.13059895  0.01836070  1  0  0.067207  0  0.935039  0  0  0.082722  0  0.998986  0  0  0.082963  0  0.998358  0  0  0.103791  0.082375  0  0.999958  0
H  H20  1  0.10339915  0.14602851  0.67030503  1  0  0.077097  0  0.958225  0  0  0.097781  0  1.020034  0  0  0.098344  0  1.020008  0  0  0.090258  0.097157  0  1.020555  0
H  H21  1  0.39660409  0.85396615  0.17031045  1  0  0.07708  0  0.958213  0  0  0.097765  0  1.020035  0  0  0.098327  0  1.02001  0  0  0.090267  0.097139  0  1.020553  0
H  H22  1  0.89660237  0.85397231  0.32969420  1  0  0.077108  0  0.958231  0  0  0.097802  0  1.020018  0  0  0.098362  0  1.019996  0  0  0.090269  0.097175  0  1.020541  0
H  H23  1  0.60340178  0.14603030  0.82969424  1  0  0.077104  0  0.958193  0  0  0.097785  0  1.020011  0  0  0.098347  0  1.019988  0  0  0.090251  0.097162  0  1.020529  0
H  H24  1  0.88466653  0.99948510  0.70494190  1  0  0.076246  0  0.961629  0  0  0.090831  0  1.034043  0  0  0.092002  0  1.033148  0  0  0.083302  0.089825  0  1.034932  0
H  H25  1  0.61533795  0.00050836  0.20494499  1  0  0.076239  0  0.96157  0  0  0.090836  0  1.033972  0  0  0.092006  0  1.033077  0  0  0.083313  0.089828  0  1.034862  0
H  H26  1  0.11533310  0.00051464  0.29505733  1  0  0.076238  0  0.96162  0  0  0.090825  0  1.034027  0  0  0.091997  0  1.03313  0  0  0.083291  0.089822  0  1.034914  0
H  H27  1  0.38466602  0.99948700  0.79505971  1  0  0.07624  0  0.961604  0  0  0.090808  0  1.03403  0  0  0.092  0  1.033117  0  0  0.083296  0.089805  0  1.034916  0
H  H28  1  0.93555851  0.17193310  0.77243818  1  0  0.085682  0  0.960309  0  0  0.099218  0  1.032868  0  0  0.1008  0  1.031152  0  0  0.099945  0.09808  0  1.034174  0
H  H29  1  0.56445209  0.82805779  0.27243718  1  0  0.085669  0  0.960369  0  0  0.099159  0  1.032981  0  0  0.10074  0  1.031267  0  0  0.099925  0.098021  0  1.034284  0
H  H30  1  0.06444071  0.82806554  0.22756104  1  0  0.085716  0  0.960251  0  0  0.09922  0  1.032842  0  0  0.100801  0  1.031127  0  0  0.099947  0.098083  0  1.034147  0
H  H31  1  0.43555894  0.17193646  0.72756517  1  0  0.085637  0  0.960412  0  0  0.099178  0  1.032959  0  0  0.10076  0  1.031244  0  0  0.099934  0.098041  0  1.034263  0
C  C32  1  0.61200320  0.38815669  0.38383715  1  0  0.3109  0  3.913323  0  0  0.293221  0  4.213047  0  0  0.321222  0  4.216119  0  0  0.079963  0.274636  0  4.209719  0
C  C33  1  0.88799903  0.61184563  0.88383569  1  0  0.310906  0  3.913417  0  0  0.29321  0  4.21315  0  0  0.321214  0  4.216222  0  0  0.079942  0.274626  0  4.209828  0
C  C34  1  0.38800291  0.61184849  0.61616364  1  0  0.310921  0  3.91335  0  0  0.293235  0  4.21308  0  0  0.321235  0  4.216161  0  0  0.07995  0.274651  0  4.209758  0
C  C35  1  0.11199382  0.38815194  0.11616510  1  0  0.310959  0  3.91339  0  0  0.293282  0  4.213097  0  0  0.321283  0  4.216173  0  0  0.079946  0.274694  0  4.209784  0
C  C36  1  0.83800877  0.12512836  0.52167898  1  0  0.05376  0  3.680789  0  0  -0.004954  0  3.952195  0  0  0.001254  0  3.957293  0  0  -0.075191  -0.009013  0  3.948564  0
C  C37  1  0.66199022  0.87487156  0.02167771  1  0  0.053784  0  3.680758  0  0  -0.00491  0  3.952219  0  0  0.001292  0  3.957328  0  0  -0.075193  -0.008966  0  3.948587  0
C  C38  1  0.16199126  0.87487247  0.47832024  1  0  0.053888  0  3.680764  0  0  -0.004878  0  3.952217  0  0  0.001329  0  3.957305  0  0  -0.075146  -0.00893  0  3.94859  0
C  C39  1  0.33801239  0.12512817  0.97832385  1  0  0.053593  0  3.680847  0  0  -0.0051  0  3.952272  0  0  0.001109  0  3.957362  0  0  -0.075255  -0.009147  0  3.948641  0
C  C40  1  0.68426705  0.16737432  0.45063311  1  0  0.069663  0  3.61366  0  0  0.004976  0  3.879093  0  0  0.013532  0  3.883222  0  0  -0.074156  -0.00085  0  3.876489  0
C  C41  1  0.81572868  0.83262766  0.95062894  1  0  0.069582  0  3.613807  0  0  0.00484  0  3.879283  0  0  0.013395  0  3.883419  0  0  -0.074271  -0.000992  0  3.876688  0
C  C42  1  0.31573378  0.83262869  0.54936611  1  0  0.069659  0  3.613662  0  0  0.004992  0  3.879081  0  0  0.013567  0  3.883181  0  0  -0.074216  -0.000842  0  3.876488  0
C  C43  1  0.18426010  0.16737102  0.04936794  1  0  0.069613  0  3.61363  0  0  0.004913  0  3.879064  0  0  0.013479  0  3.883175  0  0  -0.07423  -0.000927  0  3.876482  0
C  C44  1  0.94149214  0.11875626  0.69694746  1  0  -0.085407  0  3.667627  0  0  -0.176503  0  3.928966  0  0  -0.171121  0  3.933025  0  0  -0.150542  -0.180052  0  3.92665  0
C  C45  1  0.55851281  0.88123833  0.19694949  1  0  -0.085348  0  3.667391  0  0  -0.176375  0  3.928723  0  0  -0.170989  0  3.932781  0  0  -0.150512  -0.179918  0  3.926399  0
C  C46  1  0.05850749  0.88124348  0.30305176  1  0  -0.085434  0  3.667543  0  0  -0.176511  0  3.928887  0  0  -0.171127  0  3.932944  0  0  -0.150544  -0.180062  0  3.926573  0
C  C47  1  0.44149387  0.11876029  0.80305364  1  0  -0.08539  0  3.667562  0  0  -0.17644  0  3.928945  0  0  -0.171073  0  3.93299  0  0  -0.15053  -0.17999  0  3.926626  0
S  S48  1  0.68941754  0.57263267  0.38752344  1  0  -0.560306  0  1.98251  0  0  -0.543168  0  2.307679  0  0  -0.558012  0  2.301362  0  0  -0.28161  -0.532775  0  2.31233  0
S  S49  1  0.81058805  0.42737071  0.88752251  1  0  -0.560306  0  1.982527  0  0  -0.543172  0  2.307741  0  0  -0.558025  0  2.301435  0  0  -0.281612  -0.532772  0  2.312393  0
S  S50  1  0.31059305  0.42737249  0.61247657  1  0  -0.560288  0  1.982573  0  0  -0.543162  0  2.307792  0  0  -0.558008  0  2.301467  0  0  -0.281576  -0.532765  0  2.312443  0
S  S51  1  0.18940331  0.57262687  0.11247671  1  0  -0.560305  0  1.982596  0  0  -0.543174  0  2.307806  0  0  -0.55802  0  2.301489  0  0  -0.281558  -0.532772  0  2.312455  0
S  S52  1  0.40971015  0.28521246  0.31819937  1  0  -0.486789  0  2.007122  0  0  -0.467141  0  2.325986  0  0  -0.482217  0  2.32131  0  0  -0.250664  -0.456671  0  2.329274  0
S  S53  1  0.09029556  0.71479121  0.81819896  1  0  -0.486795  0  2.007086  0  0  -0.467148  0  2.325963  0  0  -0.482223  0  2.321288  0  0  -0.250672  -0.456669  0  2.329253  0
S  S54  1  0.59029596  0.71479271  0.68180064  1  0  -0.486784  0  2.007084  0  0  -0.467127  0  2.325949  0  0  -0.482202  0  2.321272  0  0  -0.250653  -0.456653  0  2.329237  0
S  S55  1  0.90970406  0.28520852  0.18180495  1  0  -0.486833  0  2.007103  0  0  -0.467187  0  2.325978  0  0  -0.482261  0  2.321301  0  0  -0.250666  -0.456708  0  2.329268  0
O  O56  1  0.73776045  0.32464605  0.44270085  1  0  -0.321291  0  2.380477  0  0  -0.234128  0  2.620488  0  0  -0.254578  0  2.621027  0  0  -0.238148  -0.219508  0  2.619238  0
O  O57  1  0.76224023  0.67535704  0.94269634  1  0  -0.321294  0  2.380598  0  0  -0.234098  0  2.620607  0  0  -0.254549  0  2.621151  0  0  -0.238075  -0.219483  0  2.619366  0
O  O58  1  0.26224228  0.67535804  0.55730150  1  0  -0.321285  0  2.380311  0  0  -0.234142  0  2.620347  0  0  -0.254593  0  2.620866  0  0  -0.23814  -0.219527  0  2.619112  0
O  O59  1  0.23775194  0.32464271  0.05730054  1  0  -0.321204  0  2.380261  0  0  -0.234061  0  2.620312  0  0  -0.2545  0  2.620819  0  0  -0.238116  -0.219457  0  2.619092  0
O  O60  1  0.81538082  0.17348020  0.62548569  1  0  -0.307814  0  2.302833  0  0  -0.226912  0  2.552946  0  0  -0.242974  0  2.556064  0  0  -0.284942  -0.215607  0  2.550801  0
O  O61  1  0.68462102  0.82651697  0.12548215  1  0  -0.307804  0  2.302777  0  0  -0.226988  0  2.552948  0  0  -0.243043  0  2.556059  0  0  -0.284935  -0.215685  0  2.5508  0
O  O62  1  0.18461880  0.82651954  0.37451432  1  0  -0.307836  0  2.302797  0  0  -0.226923  0  2.552912  0  0  -0.242988  0  2.556032  0  0  -0.284933  -0.215621  0  2.550766  0
O  O63  1  0.31538457  0.17348275  0.87451864  1  0  -0.307705  0  2.30277  0  0  -0.226909  0  2.55294  0  0  -0.242976  0  2.556065  0  0  -0.284876  -0.215606  0  2.550793  0
