# generated using pymatgen
data_NaH6C9SNO4
_symmetry_space_group_name_H-M   'P 1'
_cell_length_a   8.25801693
_cell_length_b   10.44165642
_cell_length_c   10.76112279
_cell_angle_alpha   90.00002137
_cell_angle_beta   102.58801399
_cell_angle_gamma   90.00009760
_symmetry_Int_Tables_number   1
_chemical_formula_structural   NaH6C9SNO4
_chemical_formula_sum   'Na4 H24 C36 S4 N4 O16'
_cell_volume   905.59878230
_cell_formula_units_Z   4
loop_
 _symmetry_equiv_pos_site_id
 _symmetry_equiv_pos_as_xyz
  1  'x, y, z'
loop_
 _atom_site_type_symbol
 _atom_site_label
 _atom_site_symmetry_multiplicity
 _atom_site_fract_x
 _atom_site_fract_y
 _atom_site_fract_z
 _atom_site_occupancy
 _atom_site_pbe_bader_spin_density
 _atom_site_pbe_cm5_charge
 _atom_site_pbe_ddec_charge
 _atom_site_pbe_ddec_spin_density
 _atom_site_pbe_ddec_sum_bond_order
 _atom_site_pbe_magmom
Na  Na0  1  0.41047766  0.96800009  0.76101720  1  0  0.69754  0.843961  0  0.54705  0
Na  Na1  1  0.41047838  0.53199829  0.26101793  1  0  0.697553  0.843979  0  0.547063  0
Na  Na2  1  0.58952333  0.03199920  0.23898045  1  0  0.697559  0.843978  0  0.547062  0
Na  Na3  1  0.58952260  0.46800196  0.73898064  1  0  0.697561  0.843995  0  0.547052  0
H  H4  1  0.41926209  0.27529666  0.10181871  1  0  0.311393  0.369498  0  0.964148  0
H  H5  1  0.41926204  0.22470325  0.60181801  1  0  0.311391  0.369516  0  0.96411  0
H  H6  1  0.58073763  0.72470455  0.89818243  1  0  0.3114  0.369503  0  0.964115  0
H  H7  1  0.58073894  0.77529604  0.39818057  1  0  0.311411  0.369493  0  0.964148  0
H  H8  1  0.05405699  0.65747815  0.27475852  1  0  0.107417  0.065083  0  1.052362  0
H  H9  1  0.05405598  0.84252168  0.77475769  1  0  0.107415  0.065074  0  1.052352  0
H  H10  1  0.94594400  0.34252498  0.72523913  1  0  0.107435  0.065102  0  1.052366  0
H  H11  1  0.94594625  0.15747665  0.22524017  1  0  0.107409  0.065056  0  1.052354  0
H  H12  1  0.74668314  0.62862398  0.20067265  1  0  0.110871  0.120275  0  1.018799  0
H  H13  1  0.74668218  0.87137579  0.70067463  1  0  0.110847  0.120229  0  1.018794  0
H  H14  1  0.25331784  0.37137818  0.79932592  1  0  0.110848  0.120244  0  1.018823  0
H  H15  1  0.25332003  0.12862350  0.29932601  1  0  0.110883  0.120312  0  1.018823  0
H  H16  1  0.63951560  0.43516799  0.07606439  1  0  0.117011  0.112108  0  1.019044  0
H  H17  1  0.63951391  0.06483125  0.57606614  1  0  0.117005  0.112075  0  1.019084  0
H  H18  1  0.36048536  0.56483322  0.92393789  1  0  0.117021  0.1121  0  1.019086  0
H  H19  1  0.36048705  0.93516804  0.42393615  1  0  0.116995  0.112093  0  1.019042  0
H  H20  1  0.91837319  0.08306903  0.91425051  1  0  0.105697  0.111927  0  1.027775  0
H  H21  1  0.91837234  0.41692976  0.41425112  1  0  0.105714  0.111956  0  1.02775  0
H  H22  1  0.08162653  0.91693122  0.08575064  1  0  0.105687  0.111891  0  1.027798  0
H  H23  1  0.08162739  0.58306953  0.58574910  1  0  0.105677  0.111883  0  1.027754  0
H  H24  1  0.22002065  0.13048059  0.98844858  1  0  0.114075  0.132339  0  1.00133  0
H  H25  1  0.22001969  0.36951920  0.48844822  1  0  0.114084  0.132366  0  1.001303  0
H  H26  1  0.77998031  0.86951870  0.01155371  1  0  0.114087  0.132386  0  1.001237  0
H  H27  1  0.77997880  0.63048105  0.51155179  1  0  0.114081  0.132362  0  1.0013  0
C  C28  1  0.00421450  0.57329989  0.21956462  1  0  0.049772  0.107385  0  4.004224  0
C  C29  1  0.00421491  0.92669889  0.71956593  1  0  0.049763  0.107349  0  4.004232  0
C  C30  1  0.99578649  0.42670132  0.78043395  1  0  0.049779  0.107346  0  4.004224  0
C  C31  1  0.99578855  0.07329944  0.28043307  1  0  0.04979  0.107424  0  4.004233  0
C  C32  1  0.83154548  0.55649180  0.17911914  1  0  -0.081905  -0.122915  0  3.970634  0
C  C33  1  0.83154469  0.94350712  0.67912024  1  0  -0.081879  -0.122777  0  3.970445  0
C  C34  1  0.16845550  0.44350940  0.82088037  1  0  -0.081882  -0.122827  0  3.970638  0
C  C35  1  0.16845752  0.05649217  0.32088040  1  0  -0.081951  -0.123003  0  3.970697  0
C  C36  1  0.77225344  0.44929228  0.10964148  1  0  -0.060603  -0.067753  0  3.911062  0
C  C37  1  0.77225173  0.05070715  0.60964229  1  0  -0.060633  -0.067825  0  3.91117  0
C  C38  1  0.22774629  0.55070892  0.89035873  1  0  -0.06062  -0.067822  0  3.911193  0
C  C39  1  0.22774924  0.94929214  0.39035814  1  0  -0.060597  -0.067734  0  3.911129  0
C  C40  1  0.83796864  0.24693361  0.00280688  1  0  -0.032195  -0.19169  0  4.004204  0
C  C41  1  0.83796989  0.25306492  0.50280734  1  0  -0.032154  -0.191656  0  4.00435  0
C  C42  1  0.16203108  0.75306568  0.99719426  1  0  -0.032189  -0.191678  0  4.004185  0
C  C43  1  0.16203108  0.74693342  0.49719217  1  0  -0.032199  -0.191711  0  4.004301  0
C  C44  1  0.95779876  0.16799238  0.97173846  1  0  -0.080435  -0.058398  0  4.021547  0
C  C45  1  0.95779770  0.33200553  0.47173900  1  0  -0.080471  -0.058421  0  4.021721  0
C  C46  1  0.04220344  0.83200787  0.02826404  1  0  -0.080437  -0.058355  0  4.021488  0
C  C47  1  0.04220079  0.66799376  0.52826008  1  0  -0.080411  -0.058289  0  4.021591  0
C  C48  1  0.12808370  0.19484753  0.01332771  1  0  -0.104505  -0.226465  0  3.974074  0
C  C49  1  0.12808259  0.30515196  0.51332778  1  0  -0.104541  -0.226571  0  3.974067  0
C  C50  1  0.87191602  0.80515272  0.98667436  1  0  -0.104521  -0.226544  0  3.9739  0
C  C51  1  0.87191715  0.69484829  0.48667151  1  0  -0.104558  -0.226601  0  3.97412  0
C  C52  1  0.17955341  0.30260347  0.08717016  1  0  0.099012  0.270145  0  4.051444  0
C  C53  1  0.17955080  0.19739420  0.58717179  1  0  0.099091  0.270242  0  4.051418  0
C  C54  1  0.82044756  0.69739582  0.91283027  1  0  0.099051  0.270147  0  4.051454  0
C  C55  1  0.82044769  0.80260413  0.41282822  1  0  0.099105  0.270177  0  4.051382  0
C  C56  1  0.05817081  0.38630180  0.12134657  1  0  0.102615  0.09612  0  3.976886  0
C  C57  1  0.05817173  0.11369764  0.62134691  1  0  0.102572  0.096077  0  3.976915  0
C  C58  1  0.94182892  0.61369941  0.87865365  1  0  0.102626  0.09613  0  3.976926  0
C  C59  1  0.94183050  0.88630070  0.37865187  1  0  0.102618  0.096193  0  3.976751  0
C  C60  1  0.88513394  0.35935069  0.07740742  1  0  8.8e-05  0.039613  0  3.996009  0
C  C61  1  0.88513244  0.14064793  0.57740736  1  0  9.5e-05  0.039619  0  3.99601  0
C  C62  1  0.11486579  0.64065052  0.92259280  1  0  7.6e-05  0.03964  0  3.995986  0
C  C63  1  0.11486730  0.85935136  0.42259100  1  0  9.8e-05  0.039577  0  3.995994  0
S  S64  1  0.62560168  0.20475260  0.95291162  1  0  0.521384  1.223542  0  6.179729  0
S  S65  1  0.62560053  0.29524485  0.45291306  1  0  0.521389  1.223532  0  6.179779  0
S  S66  1  0.37439930  0.79524861  0.04708788  1  0  0.521384  1.22357  0  6.179778  0
S  S67  1  0.37439921  0.70475252  0.54708623  1  0  0.521404  1.223656  0  6.179691  0
N  N68  1  0.11462009  0.49141353  0.19306483  1  0  -0.397642  -0.358453  0  3.409343  0
N  N69  1  0.11461828  0.00858505  0.69306467  1  0  -0.397654  -0.358473  0  3.409387  0
N  N70  1  0.88538088  0.50858768  0.80693468  1  0  -0.397681  -0.358469  0  3.409369  0
N  N71  1  0.88538146  0.99141424  0.30693369  1  0  -0.397657  -0.35849  0  3.409309  0
O  O72  1  0.33916990  0.33666714  0.12946618  1  0  -0.373092  -0.489985  0  2.423577  0
O  O73  1  0.33916846  0.16333171  0.62946521  1  0  -0.373104  -0.489992  0  2.423515  0
O  O74  1  0.66083107  0.66333311  0.87053518  1  0  -0.373114  -0.489968  0  2.423555  0
O  O75  1  0.66083127  0.83666854  0.37053408  1  0  -0.373164  -0.489972  0  2.423554  0
O  O76  1  0.62123267  0.08584808  0.88082353  1  0  -0.406304  -0.650559  0  2.236735  0
O  O77  1  0.62123430  0.41415221  0.38082363  1  0  -0.4063  -0.650565  0  2.236676  0
O  O78  1  0.37876582  0.91415409  0.11917555  1  0  -0.406315  -0.65056  0  2.236723  0
O  O79  1  0.37876544  0.58584516  0.61917566  1  0  -0.406328  -0.650617  0  2.236647  0
O  O80  1  0.56537231  0.18600154  0.07280312  1  0  -0.394706  -0.67138  0  2.243868  0
O  O81  1  0.56537247  0.31399761  0.57280341  1  0  -0.394693  -0.67138  0  2.243937  0
O  O82  1  0.43462494  0.81399871  0.92719575  1  0  -0.394701  -0.67139  0  2.243934  0
O  O83  1  0.43462726  0.68600169  0.42719681  1  0  -0.394693  -0.671405  0  2.243971  0
O  O84  1  0.53959813  0.31307729  0.88003863  1  0  -0.405493  -0.654391  0  2.205349  0
O  O85  1  0.53959922  0.18692193  0.38003948  1  0  -0.405502  -0.654367  0  2.205403  0
O  O86  1  0.46040408  0.68692487  0.11996201  1  0  -0.405472  -0.654416  0  2.205377  0
O  O87  1  0.46040299  0.81307449  0.61996209  1  0  -0.405478  -0.654401  0  2.205323  0
