# generated using pymatgen
data_CuH4C6N5
_symmetry_space_group_name_H-M   'P 1'
_cell_length_a   8.48659260
_cell_length_b   8.65503852
_cell_length_c   19.07954351
_cell_angle_alpha   89.99985635
_cell_angle_beta   90.00008269
_cell_angle_gamma   107.84828527
_symmetry_Int_Tables_number   1
_chemical_formula_structural   CuH4C6N5
_chemical_formula_sum   'Cu8 H32 C48 N40'
_cell_volume   1333.97789337
_cell_formula_units_Z   8
loop_
 _symmetry_equiv_pos_site_id
 _symmetry_equiv_pos_as_xyz
  1  'x, y, z'
loop_
 _atom_site_type_symbol
 _atom_site_label
 _atom_site_symmetry_multiplicity
 _atom_site_fract_x
 _atom_site_fract_y
 _atom_site_fract_z
 _atom_site_occupancy
 _atom_site_hle17_bader_spin_density
 _atom_site_hle17_ddec_charge
 _atom_site_hle17_ddec_spin_density
 _atom_site_hle17_ddec_sum_bond_order
 _atom_site_hle17_magmom
 _atom_site_hse06_10hf_bader_charge
 _atom_site_hse06_10hf_bader_spin_density
 _atom_site_hse06_10hf_ddec_charge
 _atom_site_hse06_10hf_ddec_spin_density
 _atom_site_hse06_10hf_ddec_sum_bond_order
 _atom_site_hse06_10hf_magmom
 _atom_site_hse06_bader_spin_density
 _atom_site_hse06_ddec_charge
 _atom_site_hse06_ddec_spin_density
 _atom_site_hse06_ddec_sum_bond_order
 _atom_site_hse06_magmom
 _atom_site_pbe_bader_spin_density
 _atom_site_pbe_cm5_charge
 _atom_site_pbe_ddec_charge
 _atom_site_pbe_ddec_spin_density
 _atom_site_pbe_ddec_sum_bond_order
 _atom_site_pbe_magmom
Cu  Cu0  1  0.54592445  0.19041235  0.82665559  1  0  0.378813  0  2.044464  0  0.722228  0  0.236412  0  2.557167  0  0  0.225446  0  2.518493  0  0  0.575839  0.249614  0  2.578934  0
Cu  Cu1  1  0.95407545  0.30958637  0.32665522  1  0  0.378761  0  2.044521  0  0.722241  0  0.236363  0  2.55718  0  0  0.225447  0  2.51854  0  0  0.575812  0.249565  0  2.57891  0
Cu  Cu2  1  0.45407700  0.80958656  0.17334398  1  0  0.378766  0  2.044477  0  0.722257  0  0.236368  0  2.557182  0  0  0.225415  0  2.518508  0  0  0.57578  0.249558  0  2.578889  0
Cu  Cu3  1  0.04592482  0.69041255  0.67334487  1  0  0.378752  0  2.04451  0  0.722324  0  0.236375  0  2.557183  0  0  0.225467  0  2.518549  0  0  0.575803  0.249582  0  2.578911  0
Cu  Cu4  1  0.53564207  0.56440544  0.90833238  1  0  0.388025  0  2.005491  0  0.725556  0  0.241316  0  2.518714  0  0  0.231985  0  2.479684  0  0  0.581938  0.252494  0  2.541643  0
Cu  Cu5  1  0.96435601  0.93559400  0.40833292  1  0  0.388047  0  2.005453  0  0.72545  0  0.241302  0  2.518657  0  0  0.232003  0  2.479655  0  0  0.58193  0.252497  0  2.541601  0
Cu  Cu6  1  0.46435740  0.43559469  0.09166614  1  0  0.388078  0  2.005394  0  0.725465  0  0.241363  0  2.518628  0  0  0.232027  0  2.479591  0  0  0.581958  0.252541  0  2.541574  0
Cu  Cu7  1  0.03564190  0.06440492  0.59166769  1  0  0.388064  0  2.005475  0  0.725442  0  0.24135  0  2.518679  0  0  0.232037  0  2.479666  0  0  0.581947  0.252537  0  2.541628  0
H  H8  1  0.57338559  0.84977692  0.79475981  1  0  0.083878  0  0.953165  0  0.096715  0  0.086945  0  1.028982  0  0  0.09048  0  1.024993  0  0  0.11411  0.084301  0  1.032052  0
H  H9  1  0.92661423  0.65022551  0.29475908  1  0  0.083886  0  0.953149  0  0.096731  0  0.086941  0  1.028965  0  0  0.090475  0  1.024979  0  0  0.114106  0.084299  0  1.032033  0
H  H10  1  0.42661543  0.15022441  0.20523924  1  0  0.083875  0  0.953153  0  0.096726  0  0.086945  0  1.028973  0  0  0.090483  0  1.024981  0  0  0.114102  0.084302  0  1.032042  0
H  H11  1  0.07338641  0.34977461  0.70524049  1  0  0.083881  0  0.95314  0  0.096709  0  0.086951  0  1.028955  0  0  0.090487  0  1.024964  0  0  0.114103  0.084308  0  1.032024  0
H  H12  1  0.09213518  0.90030512  0.81857990  1  0  0.099129  0  0.97712  0  0.122424  0  0.107798  0  1.040751  0  0  0.109971  0  1.039848  0  0  0.110288  0.10602  0  1.041728  0
H  H13  1  0.40786175  0.59969568  0.31857712  1  0  0.099234  0  0.977127  0  0.122385  0  0.107883  0  1.040776  0  0  0.110085  0  1.039843  0  0  0.110336  0.106106  0  1.041752  0
H  H14  1  0.90786231  0.09969622  0.18142124  1  0  0.099261  0  0.977073  0  0.12238  0  0.107896  0  1.040733  0  0  0.110102  0  1.039794  0  0  0.110346  0.10612  0  1.041707  0
H  H15  1  0.59213654  0.40030445  0.68142193  1  0  0.099247  0  0.977088  0  0.122401  0  0.107878  0  1.040746  0  0  0.110083  0  1.039808  0  0  0.110346  0.106103  0  1.041722  0
H  H16  1  0.13770631  0.19152132  0.85184841  1  0  0.102831  0  0.958204  0  0.106962  0  0.111711  0  1.019744  0  0  0.114425  0  1.020097  0  0  0.104843  0.109655  0  1.019868  0
H  H17  1  0.36229225  0.30847697  0.35184746  1  0  0.102841  0  0.958196  0  0.10694  0  0.11172  0  1.019722  0  0  0.114435  0  1.020073  0  0  0.10486  0.109664  0  1.019846  0
H  H18  1  0.86229631  0.80847758  0.14815168  1  0  0.102852  0  0.958176  0  0.106974  0  0.111733  0  1.019713  0  0  0.114448  0  1.020063  0  0  0.104843  0.109676  0  1.019837  0
H  H19  1  0.63770760  0.69152437  0.64815264  1  0  0.102812  0  0.958215  0  0.106938  0  0.111697  0  1.019745  0  0  0.114412  0  1.020097  0  0  0.104834  0.10964  0  1.019869  0
H  H20  1  0.89127797  0.29092470  0.86137817  1  0  0.067306  0  0.969116  0  0.097068  0  0.073232  0  1.038414  0  0  0.075787  0  1.035815  0  0  0.111416  0.071305  0  1.040431  0
H  H21  1  0.60872153  0.20907991  0.36137769  1  0  0.06722  0  0.969184  0  0.097128  0  0.073161  0  1.038472  0  0  0.075716  0  1.035873  0  0  0.111385  0.071239  0  1.040476  0
H  H22  1  0.10872264  0.70907906  0.13862035  1  0  0.06727  0  0.969178  0  0.096726  0  0.073201  0  1.038463  0  0  0.075756  0  1.035863  0  0  0.111404  0.071277  0  1.04047  0
H  H23  1  0.39127832  0.79092143  0.63862135  1  0  0.067261  0  0.969213  0  0.097113  0  0.073196  0  1.038489  0  0  0.075751  0  1.03589  0  0  0.111397  0.07127  0  1.040499  0
H  H24  1  0.01018662  0.85683251  0.96914587  1  0  0.107404  0  0.971132  0  0.147163  0  0.110362  0  1.044344  0  0  0.113947  0  1.041415  0  0  0.105964  0.107696  0  1.046584  0
H  H25  1  0.48981878  0.64317117  0.46914309  1  0  0.107501  0  0.971112  0  0.147078  0  0.110399  0  1.044361  0  0  0.113983  0  1.041436  0  0  0.105957  0.107733  0  1.0466  0
H  H26  1  0.98981639  0.14316761  0.03085632  1  0  0.107459  0  0.971147  0  0.147049  0  0.110384  0  1.044373  0  0  0.113967  0  1.041446  0  0  0.105956  0.107719  0  1.046606  0
H  H27  1  0.51018263  0.35683138  0.53085595  1  0  0.107434  0  0.971086  0  0.147076  0  0.110358  0  1.044332  0  0  0.113942  0  1.041405  0  0  0.105947  0.107692  0  1.046569  0
H  H28  1  0.51689166  0.90273066  0.91598907  1  0  0.076261  0  0.991443  0  0.119828  0  0.078844  0  1.069386  0  0  0.082335  0  1.065512  0  0  0.111857  0.076179  0  1.072519  0
H  H29  1  0.98310761  0.59726874  0.41598949  1  0  0.076259  0  0.991452  0  0.119866  0  0.078839  0  1.0694  0  0  0.08233  0  1.065528  0  0  0.111851  0.076175  0  1.07253  0
H  H30  1  0.48310902  0.09726582  0.08400997  1  0  0.076264  0  0.991451  0  0.119833  0  0.078848  0  1.069384  0  0  0.08234  0  1.065511  0  0  0.111871  0.076185  0  1.072513  0
H  H31  1  0.01689228  0.40272896  0.58401008  1  0  0.076269  0  0.991492  0  0.11986  0  0.078837  0  1.069438  0  0  0.082328  0  1.065567  0  0  0.111836  0.076173  0  1.072568  0
H  H32  1  0.16755858  0.44805957  0.90659067  1  0  0.071418  0  0.952451  0  0.121922  0  0.080292  0  1.01819  0  0  0.082657  0  1.015922  0  0  0.112029  0.078494  0  1.019999  0
H  H33  1  0.33243962  0.05194452  0.40659052  1  0  0.071408  0  0.952416  0  0.121879  0  0.080278  0  1.018168  0  0  0.082646  0  1.015895  0  0  0.112033  0.078479  0  1.019978  0
H  H34  1  0.83243895  0.55193813  0.09340890  1  0  0.07142  0  0.952437  0  0.121846  0  0.0803  0  1.018175  0  0  0.082664  0  1.01591  0  0  0.112045  0.078502  0  1.019984  0
H  H35  1  0.66755825  0.94805804  0.59340853  1  0  0.071416  0  0.952426  0  0.121903  0  0.080293  0  1.018165  0  0  0.082658  0  1.015897  0  0  0.112044  0.078495  0  1.019973  0
H  H36  1  0.94043717  0.56081896  0.94209013  1  0  0.106228  0  0.950816  0  0.081702  0  0.113972  0  1.014124  0  0  0.117393  0  1.013335  0  0  0.106429  0.111405  0  1.015031  0
H  H37  1  0.55956248  0.93918516  0.44208779  1  0  0.106254  0  0.950815  0  0.081683  0  0.114008  0  1.014111  0  0  0.117425  0  1.013328  0  0  0.106427  0.111441  0  1.015018  0
H  H38  1  0.05956385  0.43918238  0.05791048  1  0  0.106277  0  0.950763  0  0.081687  0  0.114026  0  1.014059  0  0  0.117441  0  1.013275  0  0  0.106431  0.111459  0  1.014968  0
H  H39  1  0.44043775  0.06081739  0.55791020  1  0  0.106248  0  0.950831  0  0.081691  0  0.113997  0  1.014131  0  0  0.117414  0  1.013347  0  0  0.106417  0.111429  0  1.015038  0
C  C40  1  0.26983933  0.90336521  0.94303681  1  0  -0.029196  0  3.775421  0  0.016184  0  -0.005509  0  4.005599  0  0  -0.010945  0  4.027164  0  0  0.000887  -0.002524  0  3.991768  0
C  C41  1  0.23016449  0.59663375  0.44303602  1  0  -0.029152  0  3.775381  0  0.016191  0  -0.005481  0  4.00557  0  0  -0.010915  0  4.02714  0  0  0.000897  -0.002496  0  3.991736  0
C  C42  1  0.73016446  0.09663370  0.05696381  1  0  -0.029185  0  3.775328  0  0.016204  0  -0.0055  0  4.005525  0  0  -0.010933  0  4.027095  0  0  0.000888  -0.002514  0  3.991693  0
C  C43  1  0.76983497  0.40336638  0.55696408  1  0  -0.029223  0  3.775376  0  0.016199  0  -0.005526  0  4.00557  0  0  -0.010963  0  4.027144  0  0  0.00089  -0.00254  0  3.991737  0
C  C44  1  0.31751347  0.07837496  0.95555699  1  0  0.255144  0  3.804256  0  0.971854  0  0.233911  0  4.070253  0  0  0.240264  0  4.091011  0  0  0.208332  0.229996  0  4.056205  0
C  C45  1  0.18249230  0.42162645  0.45555684  1  0  0.255127  0  3.804265  0  0.972268  0  0.233887  0  4.070279  0  0  0.240239  0  4.091035  0  0  0.208293  0.229969  0  4.056227  0
C  C46  1  0.68249387  0.92162395  0.04444363  1  0  0.25523  0  3.804098  0  0.972278  0  0.233947  0  4.070197  0  0  0.240298  0  4.090954  0  0  0.208325  0.230029  0  4.056146  0
C  C47  1  0.81750873  0.57837489  0.54444430  1  0  0.255202  0  3.80423  0  0.972279  0  0.233893  0  4.070363  0  0  0.240247  0  4.091121  0  0  0.2083  0.229975  0  4.056311  0
C  C48  1  0.69943924  0.92021722  0.80908929  1  0  0.088167  0  3.656906  0  0.54656  0  0.051005  0  3.906589  0  0  0.059328  0  3.917217  0  0  0.044758  0.045085  0  3.900903  0
C  C49  1  0.80055749  0.57978272  0.30908961  1  0  0.088237  0  3.657002  0  0.546432  0  0.051064  0  3.906701  0  0  0.059387  0  3.91734  0  0  0.044763  0.045137  0  3.90102  0
C  C50  1  0.30055985  0.07978170  0.19090923  1  0  0.088255  0  3.657098  0  0.546392  0  0.051068  0  3.906778  0  0  0.059388  0  3.917427  0  0  0.044781  0.045144  0  3.901089  0
C  C51  1  0.19944159  0.42021619  0.69090996  1  0  0.088222  0  3.6569  0  0.546448  0  0.051047  0  3.906599  0  0  0.059372  0  3.917243  0  0  0.044749  0.045122  0  3.900915  0
C  C52  1  0.82880207  0.85132363  0.80691636  1  0  -0.033387  0  3.784693  0  0.024845  0  -0.012714  0  4.023165  0  0  -0.017204  0  4.041989  0  0  0.0004  -0.010473  0  4.011143  0
C  C53  1  0.67119663  0.64867510  0.30691599  1  0  -0.033596  0  3.784979  0  0.025137  0  -0.012878  0  4.023435  0  0  -0.017367  0  4.042261  0  0  0.000339  -0.010632  0  4.011412  0
C  C54  1  0.17119781  0.14867407  0.19308373  1  0  -0.033543  0  3.784958  0  0.025152  0  -0.012843  0  4.023413  0  0  -0.017332  0  4.04224  0  0  0.000334  -0.010598  0  4.011389  0
C  C55  1  0.32880519  0.35132502  0.69308410  1  0  -0.033565  0  3.784864  0  0.025149  0  -0.012879  0  4.023333  0  0  -0.01737  0  4.04216  0  0  0.000353  -0.010633  0  4.011313  0
C  C56  1  0.98972899  0.95056066  0.82100212  1  0  -0.028913  0  3.698263  0  -0.06292  0  -0.060081  0  3.945558  0  0  -0.054708  0  3.963278  0  0  -0.069809  -0.06358  0  3.934105  0
C  C57  1  0.51026579  0.54944044  0.32100229  1  0  -0.028898  0  3.698284  0  -0.062863  0  -0.060113  0  3.945655  0  0  -0.054762  0  3.963356  0  0  -0.069817  -0.063618  0  3.934206  0
C  C58  1  0.01026733  0.04944068  0.17899797  1  0  -0.029008  0  3.698272  0  -0.062934  0  -0.060185  0  3.945631  0  0  -0.054835  0  3.963328  0  0  -0.069883  -0.063688  0  3.934179  0
C  C59  1  0.48973406  0.45056090  0.67899780  1  0  -0.028913  0  3.698258  0  -0.062878  0  -0.060071  0  3.945595  0  0  -0.054722  0  3.963293  0  0  -0.069838  -0.063578  0  3.934148  0
C  C60  1  0.01424873  0.11131547  0.83994981  1  0  -0.114035  0  3.737451  0  0.001707  0  -0.12343  0  3.988162  0  0  -0.13222  0  4.011647  0  0  -0.088364  -0.11798  0  3.972812  0
C  C61  1  0.48575019  0.38868410  0.33994884  1  0  -0.114063  0  3.73741  0  0.00161  0  -0.12341  0  3.98812  0  0  -0.132198  0  4.011607  0  0  -0.088397  -0.117961  0  3.972771  0
C  C62  1  0.98575192  0.88868466  0.16005186  1  0  -0.114058  0  3.737341  0  0.001716  0  -0.123444  0  3.988063  0  0  -0.132234  0  4.011551  0  0  -0.088349  -0.117993  0  3.97271  0
C  C63  1  0.51424965  0.61131724  0.66005020  1  0  -0.114027  0  3.737386  0  0.001633  0  -0.123416  0  3.988094  0  0  -0.132205  0  4.011582  0  0  -0.088371  -0.117964  0  3.972741  0
C  C64  1  0.87810492  0.16740618  0.84480027  1  0  0.122101  0  3.706374  0  0.462949  0  0.089293  0  3.959442  0  0  0.096836  0  3.974624  0  0  0.037436  0.084398  0  3.949588  0
C  C65  1  0.62189417  0.33259730  0.34479914  1  0  0.122217  0  3.7064  0  0.463326  0  0.089373  0  3.959475  0  0  0.09692  0  3.974662  0  0  0.037445  0.084477  0  3.949617  0
C  C66  1  0.12189569  0.83259759  0.15519930  1  0  0.122141  0  3.706429  0  0.463696  0  0.089332  0  3.959478  0  0  0.096882  0  3.974662  0  0  0.037426  0.084436  0  3.949616  0
C  C67  1  0.37810450  0.66740404  0.65520148  1  0  0.12218  0  3.706446  0  0.462947  0  0.089375  0  3.959509  0  0  0.096926  0  3.974695  0  0  0.037479  0.08448  0  3.949648  0
C  C68  1  0.10617216  0.80482518  0.95272992  1  0  -0.037179  0  3.678957  0  -0.072213  0  -0.062777  0  3.922136  0  0  -0.057966  0  3.938221  0  0  -0.066899  -0.065919  0  3.911673  0
C  C69  1  0.39383127  0.69517616  0.45272702  1  0  -0.037354  0  3.678967  0  -0.07209  0  -0.062875  0  3.922138  0  0  -0.05807  0  3.93823  0  0  -0.066906  -0.066017  0  3.911674  0
C  C70  1  0.89383085  0.19517495  0.04727227  1  0  -0.037262  0  3.679011  0  -0.072124  0  -0.062808  0  3.922178  0  0  -0.058002  0  3.938271  0  0  -0.066891  -0.065948  0  3.911717  0
C  C71  1  0.60617017  0.30482275  0.54727202  1  0  -0.03719  0  3.678976  0  -0.072115  0  -0.062742  0  3.922142  0  0  -0.057935  0  3.938236  0  0  -0.066867  -0.065883  0  3.911679  0
C  C72  1  0.38794313  0.83023864  0.92186710  1  0  0.091446  0  3.652547  0  0.537763  0  0.049717  0  3.905759  0  0  0.058014  0  3.917759  0  0  0.040135  0.043952  0  3.898621  0
C  C73  1  0.11205945  0.66976407  0.42186772  1  0  0.091412  0  3.652605  0  0.53725  0  0.049656  0  3.905861  0  0  0.05796  0  3.917847  0  0  0.040102  0.043892  0  3.898719  0
C  C74  1  0.61206025  0.16976270  0.07813247  1  0  0.091412  0  3.652598  0  0.537785  0  0.049669  0  3.905837  0  0  0.057966  0  3.917829  0  0  0.040107  0.043905  0  3.898696  0
C  C75  1  0.88794158  0.33023727  0.57813238  1  0  0.091425  0  3.652607  0  0.537241  0  0.049705  0  3.905828  0  0  0.058009  0  3.917815  0  0  0.040133  0.043941  0  3.898687  0
C  C76  1  0.19258675  0.57705874  0.91695459  1  0  0.119341  0  3.693261  0  0.353185  0  0.087868  0  3.942489  0  0  0.095695  0  3.957471  0  0  0.038131  0.082576  0  3.933038  0
C  C77  1  0.30741191  0.92294278  0.41695452  1  0  0.119316  0  3.693344  0  0.353183  0  0.087824  0  3.942573  0  0  0.095652  0  3.957557  0  0  0.038063  0.082533  0  3.933121  0
C  C78  1  0.80741275  0.42293774  0.08304551  1  0  0.119346  0  3.693336  0  0.353347  0  0.087845  0  3.942576  0  0  0.09567  0  3.957556  0  0  0.038103  0.082555  0  3.933127  0
C  C79  1  0.69258756  0.07705735  0.58304453  1  0  0.119329  0  3.693254  0  0.353216  0  0.087844  0  3.942487  0  0  0.095672  0  3.957471  0  0  0.038072  0.082552  0  3.933038  0
C  C80  1  0.06742254  0.63997223  0.93756664  1  0  -0.117397  0  3.747497  0  0.033696  0  -0.126853  0  3.995956  0  0  -0.134809  0  4.018149  0  0  -0.087571  -0.122  0  3.981681  0
C  C81  1  0.43257889  0.86003040  0.43756463  1  0  -0.117391  0  3.747437  0  0.033731  0  -0.126856  0  3.995876  0  0  -0.134809  0  4.018071  0  0  -0.087546  -0.122003  0  3.981598  0
C  C82  1  0.93257929  0.36002790  0.06243503  1  0  -0.117476  0  3.747448  0  0.033661  0  -0.126931  0  3.995887  0  0  -0.134883  0  4.018081  0  0  -0.087572  -0.122078  0  3.981615  0
C  C83  1  0.56742096  0.13997094  0.56243389  1  0  -0.117465  0  3.747551  0  0.033672  0  -0.126923  0  3.995994  0  0  -0.134877  0  4.018188  0  0  -0.08757  -0.122069  0  3.981719  0
C  C84  1  0.79745948  0.67782859  0.79470966  1  0  0.268118  0  3.781994  0  0.961795  0  0.243794  0  4.041629  0  0  0.251116  0  4.06118  0  0  0.211769  0.239385  0  4.028558  0
C  C85  1  0.70254039  0.82217020  0.29470912  1  0  0.268175  0  3.782098  0  0.962354  0  0.24387  0  4.041702  0  0  0.251191  0  4.061252  0  0  0.211773  0.239457  0  4.02863  0
C  C86  1  0.20254197  0.32217032  0.20529096  1  0  0.268224  0  3.781975  0  0.962343  0  0.243926  0  4.041557  0  0  0.251248  0  4.061107  0  0  0.211814  0.239516  0  4.028488  0
C  C87  1  0.29745752  0.17782871  0.70529150  1  0  0.268152  0  3.782105  0  0.96235  0  0.243865  0  4.041679  0  0  0.251187  0  4.061227  0  0  0.211788  0.239454  0  4.028612  0
N  N88  1  0.42292488  0.19407823  0.91529289  1  0  -0.281174  0  3.256977  0  -0.728704  0  -0.229195  0  3.583288  0  0  -0.233457  0  3.583111  0  0  -0.267909  -0.227331  0  3.583427  0
N  N89  1  0.07707493  0.30592338  0.41529333  1  0  -0.281111  0  3.256934  0  -0.729122  0  -0.229113  0  3.583217  0  0  -0.233387  0  3.58307  0  0  -0.267882  -0.227246  0  3.583336  0
N  N90  1  0.57707774  0.80592067  0.08470720  1  0  -0.281088  0  3.256866  0  -0.729101  0  -0.2291  0  3.583182  0  0  -0.233364  0  3.583008  0  0  -0.267885  -0.227229  0  3.583288  0
N  N91  1  0.92292139  0.69407796  0.58470834  1  0  -0.281131  0  3.256879  0  -0.729142  0  -0.229138  0  3.583204  0  0  -0.233418  0  3.583062  0  0  -0.267886  -0.227273  0  3.583323  0
N  N92  1  0.72299346  0.07586157  0.82788530  1  0  -0.277478  0  3.342428  0  -1.264145  0  -0.204417  0  3.638229  0  0  -0.212347  0  3.643685  0  0  -0.353965  -0.200258  0  3.634532  0
N  N93  1  0.77700719  0.42413957  0.32788678  1  0  -0.277531  0  3.342459  0  -1.26454  0  -0.204428  0  3.638223  0  0  -0.212381  0  3.643714  0  0  -0.353903  -0.200267  0  3.634513  0
N  N94  1  0.27700677  0.92414098  0.17211217  1  0  -0.277501  0  3.342543  0  -1.264555  0  -0.204415  0  3.638323  0  0  -0.212364  0  3.643799  0  0  -0.353892  -0.20025  0  3.6346  0
N  N95  1  0.22299151  0.57585813  0.67211331  1  0  -0.277523  0  3.342465  0  -1.264167  0  -0.20446  0  3.638265  0  0  -0.212423  0  3.643769  0  0  -0.353933  -0.200299  0  3.634554  0
N  N96  1  0.43217943  0.33601083  0.94672490  1  0  -0.087335  0  3.218958  0  -0.193741  0  -0.048541  0  3.549172  0  0  -0.042509  0  3.543864  0  0  -0.158931  -0.053713  0  3.553867  0
N  N97  1  0.06782081  0.16399184  0.44672498  1  0  -0.087446  0  3.219083  0  -0.193694  0  -0.048659  0  3.549297  0  0  -0.042636  0  3.544013  0  0  -0.158977  -0.053837  0  3.553998  0
N  N98  1  0.56782239  0.66398930  0.05327571  1  0  -0.087451  0  3.219026  0  -0.193766  0  -0.048657  0  3.549266  0  0  -0.042622  0  3.543952  0  0  -0.158943  -0.053832  0  3.55396  0
N  N99  1  0.93217668  0.83600950  0.55327616  1  0  -0.087415  0  3.219045  0  -0.193716  0  -0.048625  0  3.549264  0  0  -0.042597  0  3.543974  0  0  -0.158956  -0.053803  0  3.553966  0
N  N100  1  0.26339924  0.14558715  0.01047876  1  0  -0.296265  0  2.941739  0  -0.67932  0  -0.270281  0  3.21783  0  0  -0.281608  0  3.23338  0  0  -0.219144  -0.262351  0  3.207082  0
N  N101  1  0.23660110  0.35441286  0.51047855  1  0  -0.29626  0  2.941818  0  -0.679386  0  -0.27027  0  3.2179  0  0  -0.281602  0  3.233467  0  0  -0.21916  -0.262341  0  3.20715  0
N  N102  1  0.73660023  0.85441297  0.98952133  1  0  -0.296343  0  2.941799  0  -0.679376  0  -0.270337  0  3.217898  0  0  -0.28167  0  3.233465  0  0  -0.21916  -0.262409  0  3.207149  0
N  N103  1  0.76339799  0.64558605  0.48952207  1  0  -0.296238  0  2.941791  0  -0.679345  0  -0.270231  0  3.217899  0  0  -0.281554  0  3.233446  0  0  -0.21911  -0.262301  0  3.207148  0
N  N104  1  0.33842318  0.30599890  0.00460801  1  0  -0.096433  0  3.176031  0  -0.21172  0  -0.058092  0  3.499003  0  0  -0.055931  0  3.500788  0  0  -0.149327  -0.059978  0  3.498025  0
N  N105  1  0.16157909  0.19400356  0.50460793  1  0  -0.096397  0  3.176119  0  -0.211695  0  -0.058051  0  3.499069  0  0  -0.055898  0  3.500868  0  0  -0.149257  -0.059938  0  3.498091  0
N  N106  1  0.66157785  0.69400244  0.99539156  1  0  -0.09638  0  3.176083  0  -0.211805  0  -0.058034  0  3.499036  0  0  -0.055877  0  3.500823  0  0  -0.149316  -0.059919  0  3.498049  0
N  N107  1  0.83841996  0.80599899  0.49539269  1  0  -0.096463  0  3.176072  0  -0.211705  0  -0.058103  0  3.499007  0  0  -0.055953  0  3.500812  0  0  -0.149329  -0.059992  0  3.498029  0
N  N108  1  0.35246000  0.66930319  0.91073012  1  0  -0.280967  0  3.344574  0  -1.236826  0  -0.205719  0  3.64014  0  0  -0.214431  0  3.646795  0  0  -0.356307  -0.200945  0  3.635908  0
N  N109  1  0.14754100  0.83069836  0.41073005  1  0  -0.280911  0  3.344801  0  -1.236328  0  -0.205607  0  3.640294  0  0  -0.214331  0  3.646975  0  0  -0.356223  -0.200839  0  3.636072  0
N  N110  1  0.64754026  0.33069572  0.08926998  1  0  -0.280946  0  3.344737  0  -1.23686  0  -0.205659  0  3.640267  0  0  -0.214365  0  3.646918  0  0  -0.356281  -0.200888  0  3.636043  0
N  N111  1  0.85246045  0.16930055  0.58926952  1  0  -0.280891  0  3.344685  0  -1.236313  0  -0.205623  0  3.64021  0  0  -0.21434  0  3.646877  0  0  -0.356225  -0.200854  0  3.63599  0
N  N112  1  0.68252836  0.56056914  0.82974722  1  0  -0.287735  0  3.294384  0  -0.754063  0  -0.234914  0  3.625729  0  0  -0.240905  0  3.627102  0  0  -0.27686  -0.231748  0  3.624645  0
N  N113  1  0.81746959  0.93943070  0.32974714  1  0  -0.287748  0  3.294394  0  -0.754324  0  -0.234932  0  3.625733  0  0  -0.240934  0  3.627138  0  0  -0.27682  -0.231772  0  3.624659  0
N  N114  1  0.31747035  0.43942856  0.17025340  1  0  -0.287782  0  3.294376  0  -0.754346  0  -0.234995  0  3.625747  0  0  -0.240983  0  3.627116  0  0  -0.276847  -0.231831  0  3.624668  0
N  N115  1  0.18252908  0.06057065  0.67025296  1  0  -0.287772  0  3.294335  0  -0.754366  0  -0.234976  0  3.625691  0  0  -0.240971  0  3.627081  0  0  -0.276874  -0.231814  0  3.62462  0
N  N116  1  0.69918610  0.41887220  0.80643490  1  0  -0.080775  0  3.270687  0  -0.183247  0  -0.038533  0  3.601844  0  0  -0.034114  0  3.599649  0  0  -0.15004  -0.042568  0  3.603887  0
N  N117  1  0.80081060  0.08112784  0.30643574  1  0  -0.080707  0  3.270647  0  -0.183263  0  -0.038461  0  3.601796  0  0  -0.034055  0  3.599631  0  0  -0.150031  -0.042495  0  3.603825  0
N  N118  1  0.30081260  0.58112550  0.19356519  1  0  -0.08071  0  3.270632  0  -0.18321  0  -0.038449  0  3.601782  0  0  -0.034033  0  3.59959  0  0  -0.150009  -0.042477  0  3.603798  0
N  N119  1  0.19918533  0.91887229  0.69356435  1  0  -0.080671  0  3.270588  0  -0.183344  0  -0.038438  0  3.601761  0  0  -0.03403  0  3.599593  0  0  -0.149999  -0.04247  0  3.603791  0
N  N120  1  0.88352513  0.60959106  0.75137745  1  0  -0.28089  0  3.263406  0  -0.730573  0  -0.226416  0  3.593362  0  0  -0.233037  0  3.598053  0  0  -0.262694  -0.222916  0  3.589738  0
N  N121  1  0.61647698  0.89041160  0.25137678  1  0  -0.2809  0  3.263448  0  -0.730947  0  -0.226456  0  3.593452  0  0  -0.233064  0  3.598111  0  0  -0.262709  -0.22295  0  3.589811  0
N  N122  1  0.11647787  0.39040907  0.24862316  1  0  -0.280896  0  3.263365  0  -0.730973  0  -0.226426  0  3.593316  0  0  -0.233046  0  3.598002  0  0  -0.262724  -0.222925  0  3.589691  0
N  N123  1  0.38352170  0.10958974  0.74862332  1  0  -0.28087  0  3.263384  0  -0.730956  0  -0.226396  0  3.593333  0  0  -0.233001  0  3.597988  0  0  -0.2627  -0.222898  0  3.589724  0
N  N124  1  0.81939789  0.44780563  0.75959942  1  0  -0.096471  0  2.936902  0  -0.134554  0  -0.089028  0  3.228802  0  0  -0.089529  0  3.237078  0  0  -0.108759  -0.088299  0  3.223518  0
N  N125  1  0.68060147  0.05219586  0.25959969  1  0  -0.09646  0  2.936825  0  -0.134594  0  -0.089009  0  3.228731  0  0  -0.08951  0  3.237006  0  0  -0.108754  -0.088283  0  3.22344  0
N  N126  1  0.18060237  0.55219328  0.24040120  1  0  -0.096488  0  2.936852  0  -0.134555  0  -0.089057  0  3.228763  0  0  -0.089556  0  3.237038  0  0  -0.108755  -0.08833  0  3.223474  0
N  N127  1  0.31939329  0.94780427  0.74040250  1  0  -0.0965  0  2.936824  0  -0.134553  0  -0.089066  0  3.228747  0  0  -0.089564  0  3.237015  0  0  -0.108764  -0.088338  0  3.223462  0
