# generated using pymatgen
data_GdH2C4N3O5
_symmetry_space_group_name_H-M   'P 1'
_cell_length_a   8.47896821
_cell_length_b   8.47902025
_cell_length_c   9.73348053
_cell_angle_alpha   90.00451044
_cell_angle_beta   89.99571616
_cell_angle_gamma   119.99807703
_symmetry_Int_Tables_number   1
_chemical_formula_structural   GdH2C4N3O5
_chemical_formula_sum   'Gd3 H6 C12 N9 O15'
_cell_volume   606.03246347
_cell_formula_units_Z   3
loop_
 _symmetry_equiv_pos_site_id
 _symmetry_equiv_pos_as_xyz
  1  'x, y, z'
loop_
 _atom_site_type_symbol
 _atom_site_label
 _atom_site_symmetry_multiplicity
 _atom_site_fract_x
 _atom_site_fract_y
 _atom_site_fract_z
 _atom_site_occupancy
 _atom_site_hle17_bader_spin_density
 _atom_site_hle17_ddec_charge
 _atom_site_hle17_ddec_spin_density
 _atom_site_hle17_ddec_sum_bond_order
 _atom_site_hle17_magmom
 _atom_site_hse06_10hf_bader_spin_density
 _atom_site_hse06_10hf_ddec_charge
 _atom_site_hse06_10hf_ddec_spin_density
 _atom_site_hse06_10hf_ddec_sum_bond_order
 _atom_site_hse06_10hf_magmom
 _atom_site_hse06_bader_spin_density
 _atom_site_hse06_ddec_charge
 _atom_site_hse06_ddec_spin_density
 _atom_site_hse06_ddec_sum_bond_order
 _atom_site_hse06_magmom
 _atom_site_pbe_bader_spin_density
 _atom_site_pbe_cm5_charge
 _atom_site_pbe_ddec_charge
 _atom_site_pbe_ddec_spin_density
 _atom_site_pbe_ddec_sum_bond_order
 _atom_site_pbe_magmom
Gd  Gd0  1  0.21841599  0.99999568  0.16664810  1  0  2.042093  0  1.946541  0  0  1.901944  0  2.361045  0  0  1.959959  0  2.301704  0  0  1.51489  1.857689  0  2.407768  0
Gd  Gd1  1  0.00000006  0.21841817  0.83335589  1  0  2.042134  0  1.94652  0  0  1.901999  0  2.36101  0  0  1.960058  0  2.301598  0  0  1.514921  1.857759  0  2.407696  0
Gd  Gd2  1  0.78155623  0.78155771  0.50000029  1  0  2.041928  0  1.946755  0  0  1.901853  0  2.361101  0  0  1.959738  0  2.301984  0  0  1.514891  1.857488  0  2.408026  0
H  H3  1  0.26723872  0.36149878  0.03886237  1  0  0.473073  0  0.765308  0  0  0.449414  0  0.823072  0  0  0.460045  0  0.811042  0  0  0.348305  0.44171  0  0.831845  0
H  H4  1  0.63849397  0.90573784  0.70551849  1  0  0.47308  0  0.765405  0  0  0.449411  0  0.823202  0  0  0.460043  0  0.811164  0  0  0.348209  0.441707  0  0.831971  0
H  H5  1  0.09429109  0.73274771  0.37215628  1  0  0.473402  0  0.764899  0  0  0.449537  0  0.823013  0  0  0.460158  0  0.810976  0  0  0.348286  0.441837  0  0.831797  0
H  H6  1  0.90568830  0.63848832  0.29445844  1  0  0.473145  0  0.765333  0  0  0.449482  0  0.823096  0  0  0.460113  0  0.811063  0  0  0.34826  0.44178  0  0.83186  0
H  H7  1  0.73280457  0.09433758  0.62781838  1  0  0.473208  0  0.765149  0  0  0.449532  0  0.822969  0  0  0.460157  0  0.81092  0  0  0.348293  0.441828  0  0.831745  0
H  H8  1  0.36149817  0.26719042  0.96112325  1  0  0.473237  0  0.765128  0  0  0.449522  0  0.822987  0  0  0.460146  0  0.810957  0  0  0.348371  0.441818  0  0.831757  0
C  C9  1  0.03664666  0.69537412  0.90019924  1  0  0.003239  0  3.686244  0  0  -0.002609  0  3.943734  0  0  -0.004948  0  3.961124  0  0  0.104836  -0.001259  0  3.932149  0
C  C10  1  0.30462444  0.34127772  0.56689972  1  0  0.002839  0  3.686341  0  0  -0.002977  0  3.943972  0  0  -0.005308  0  3.961377  0  0  0.104714  -0.001627  0  3.932387  0
C  C11  1  0.65874035  0.96338287  0.23358791  1  0  0.002842  0  3.686575  0  0  -0.002995  0  3.944232  0  0  -0.005335  0  3.961618  0  0  0.104769  -0.001644  0  3.932643  0
C  C12  1  0.34128196  0.30461769  0.43311058  1  0  0.002884  0  3.686147  0  0  -0.00291  0  3.943752  0  0  -0.005248  0  3.961152  0  0  0.104682  -0.001558  0  3.932166  0
C  C13  1  0.96335487  0.65872733  0.76642203  1  0  0.00286  0  3.686747  0  0  -0.002972  0  3.944365  0  0  -0.005312  0  3.961752  0  0  0.104696  -0.001622  0  3.932777  0
C  C14  1  0.69538315  0.03665388  0.09980813  1  0  0.003436  0  3.68638  0  0  -0.002446  0  3.943926  0  0  -0.004783  0  3.96132  0  0  0.104861  -0.001097  0  3.932344  0
C  C15  1  0.09568239  0.60791523  0.00551638  1  0  0.718873  0  3.871438  0  0  0.670546  0  4.170967  0  0  0.707163  0  4.157698  0  0  0.240008  0.645595  0  4.179314  0
C  C16  1  0.39211592  0.48777429  0.67223114  1  0  0.719233  0  3.870966  0  0  0.670651  0  4.170937  0  0  0.707237  0  4.157708  0  0  0.24013  0.6457  0  4.179284  0
C  C17  1  0.51224077  0.90430973  0.33889524  1  0  0.719149  0  3.871589  0  0  0.670592  0  4.171507  0  0  0.707202  0  4.158235  0  0  0.240031  0.645643  0  4.179854  0
C  C18  1  0.48776310  0.39211729  0.32777135  1  0  0.719243  0  3.87067  0  0  0.670691  0  4.170594  0  0  0.70729  0  4.15734  0  0  0.240144  0.645739  0  4.178943  0
C  C19  1  0.90430927  0.51223571  0.66110509  1  0  0.719  0  3.871523  0  0  0.670464  0  4.171413  0  0  0.707074  0  4.158144  0  0  0.240055  0.645517  0  4.179756  0
C  C20  1  0.60792777  0.09567826  0.99448786  1  0  0.718901  0  3.87135  0  0  0.6706  0  4.170864  0  0  0.707213  0  4.157598  0  0  0.240047  0.64565  0  4.179211  0
N  N21  1  0.05665701  0.85880400  0.93679648  1  0  -0.303987  0  3.210117  0  0  -0.277456  0  3.496896  0  0  -0.286186  0  3.515553  0  0  -0.268436  -0.27088  0  3.484053  0
N  N22  1  0.14121174  0.19786110  0.60351191  1  0  -0.303747  0  3.210469  0  0  -0.277194  0  3.497239  0  0  -0.285931  0  3.515891  0  0  -0.268348  -0.270619  0  3.484386  0
N  N23  1  0.80214314  0.94336965  0.27020251  1  0  -0.303581  0  3.210208  0  0  -0.277019  0  3.496951  0  0  -0.285733  0  3.515604  0  0  -0.268419  -0.270433  0  3.484104  0
N  N24  1  0.19788424  0.14118837  0.39650917  1  0  -0.303965  0  3.21061  0  0  -0.277419  0  3.497385  0  0  -0.286148  0  3.516038  0  0  -0.26844  -0.270841  0  3.484527  0
N  N25  1  0.94332721  0.80212335  0.72981072  1  0  -0.303855  0  3.210963  0  0  -0.277321  0  3.497742  0  0  -0.286034  0  3.516399  0  0  -0.26843  -0.270736  0  3.484895  0
N  N26  1  0.85883221  0.05670309  0.06322046  1  0  -0.304224  0  3.210484  0  0  -0.277706  0  3.497316  0  0  -0.286444  0  3.515972  0  0  -0.268463  -0.271133  0  3.484473  0
N  N27  1  0.00000746  0.92017448  0.83329482  1  0  -0.142375  0  3.215505  0  0  -0.12072  0  3.521122  0  0  -0.126016  0  3.5387  0  0  -0.17435  -0.116581  0  3.508839  0
N  N28  1  0.07984792  0.07981959  0.50001141  1  0  -0.142365  0  3.215371  0  0  -0.120741  0  3.520995  0  0  -0.126013  0  3.538574  0  0  -0.174269  -0.116586  0  3.50871  0
N  N29  1  0.92020738  0.00006774  0.16672418  1  0  -0.142523  0  3.215293  0  0  -0.120857  0  3.520897  0  0  -0.126145  0  3.538475  0  0  -0.17436  -0.116716  0  3.508614  0
O  O30  1  0.24519871  0.24518936  0.99998907  1  0  -0.904789  0  1.993487  0  0  -0.862288  0  2.213993  0  0  -0.884352  0  2.187313  0  0  -0.607502  -0.846024  0  2.232723  0
O  O31  1  0.75479931  0.00002594  0.66666176  1  0  -0.904788  0  1.993435  0  0  -0.862259  0  2.213673  0  0  -0.884302  0  2.186992  0  0  -0.607312  -0.845987  0  2.232404  0
O  O32  1  0.00000649  0.75478203  0.33331380  1  0  -0.905022  0  1.993095  0  0  -0.862362  0  2.213754  0  0  -0.884399  0  2.187071  0  0  -0.607354  -0.846099  0  2.232485  0
O  O33  1  0.07252774  0.44945042  0.98781291  1  0  -0.701368  0  2.086798  0  0  -0.654157  0  2.337582  0  0  -0.680493  0  2.323101  0  0  -0.407381  -0.635366  0  2.347345  0
O  O34  1  0.55054343  0.62311136  0.65450314  1  0  -0.701508  0  2.086646  0  0  -0.654168  0  2.337498  0  0  -0.680468  0  2.323039  0  0  -0.407312  -0.635361  0  2.347266  0
O  O35  1  0.37687816  0.92738529  0.32117095  1  0  -0.70179  0  2.086261  0  0  -0.654415  0  2.337056  0  0  -0.680741  0  2.322574  0  0  -0.407276  -0.635621  0  2.346825  0
O  O36  1  0.62309562  0.55054450  0.34549677  1  0  -0.701538  0  2.086582  0  0  -0.65423  0  2.337446  0  0  -0.680535  0  2.32298  0  0  -0.40733  -0.635422  0  2.347216  0
O  O37  1  0.92738176  0.37687592  0.67881995  1  0  -0.701595  0  2.086278  0  0  -0.654261  0  2.337089  0  0  -0.680595  0  2.322605  0  0  -0.407164  -0.63547  0  2.346853  0
O  O38  1  0.44945031  0.07252804  0.01218280  1  0  -0.701622  0  2.086166  0  0  -0.6544  0  2.336927  0  0  -0.680731  0  2.322448  0  0  -0.407516  -0.635605  0  2.346691  0
O  O39  1  0.16749970  0.70108004  0.11321767  1  0  -0.687188  0  2.019929  0  0  -0.645089  0  2.259709  0  0  -0.670268  0  2.247099  0  0  -0.383956  -0.627229  0  2.268092  0
O  O40  1  0.29894488  0.46647051  0.77993286  1  0  -0.687298  0  2.019692  0  0  -0.64513  0  2.259611  0  0  -0.670307  0  2.247017  0  0  -0.383965  -0.627271  0  2.267994  0
O  O41  1  0.53352995  0.83245340  0.44658119  1  0  -0.687121  0  2.02034  0  0  -0.644977  0  2.260256  0  0  -0.67014  0  2.247658  0  0  -0.383907  -0.627104  0  2.268642  0
O  O42  1  0.46645005  0.29894835  0.22006533  1  0  -0.687314  0  2.019517  0  0  -0.64515  0  2.259429  0  0  -0.670325  0  2.246827  0  0  -0.383988  -0.627291  0  2.267817  0
O  O43  1  0.83247084  0.53354026  0.55340673  1  0  -0.687163  0  2.020207  0  0  -0.645019  0  2.260099  0  0  -0.670183  0  2.247497  0  0  -0.384024  -0.627145  0  2.268483  0
O  O44  1  0.70105608  0.16747474  0.88678070  1  0  -0.687075  0  2.02021  0  0  -0.64499  0  2.259986  0  0  -0.670173  0  2.247377  0  0  -0.383892  -0.627135  0  2.26837  0
