# generated using pymatgen
data_CdH11C9NO4
_symmetry_space_group_name_H-M   'P 1'
_cell_length_a   9.64971147
_cell_length_b   10.01421795
_cell_length_c   12.84456147
_cell_angle_alpha   71.67110073
_cell_angle_beta   73.58178045
_cell_angle_gamma   74.85365609
_symmetry_Int_Tables_number   1
_chemical_formula_structural   CdH11C9NO4
_chemical_formula_sum   'Cd4 H44 C36 N4 O16'
_cell_volume   1109.76726233
_cell_formula_units_Z   4
loop_
 _symmetry_equiv_pos_site_id
 _symmetry_equiv_pos_as_xyz
  1  'x, y, z'
loop_
 _atom_site_type_symbol
 _atom_site_label
 _atom_site_symmetry_multiplicity
 _atom_site_fract_x
 _atom_site_fract_y
 _atom_site_fract_z
 _atom_site_occupancy
 _atom_site_hle17_bader_spin_density
 _atom_site_hle17_ddec_charge
 _atom_site_hle17_ddec_spin_density
 _atom_site_hle17_ddec_sum_bond_order
 _atom_site_hle17_magmom
 _atom_site_hse06_10hf_bader_spin_density
 _atom_site_hse06_10hf_ddec_charge
 _atom_site_hse06_10hf_ddec_spin_density
 _atom_site_hse06_10hf_ddec_sum_bond_order
 _atom_site_hse06_10hf_magmom
 _atom_site_hse06_bader_spin_density
 _atom_site_hse06_ddec_charge
 _atom_site_hse06_ddec_spin_density
 _atom_site_hse06_ddec_sum_bond_order
 _atom_site_hse06_magmom
 _atom_site_pbe_bader_spin_density
 _atom_site_pbe_cm5_charge
 _atom_site_pbe_ddec_charge
 _atom_site_pbe_ddec_spin_density
 _atom_site_pbe_ddec_sum_bond_order
 _atom_site_pbe_magmom
Cd  Cd0  1  0.00000007  0.00000237  0.99999930  1  0  1.19732  0  1.712921  0  0  0.999114  0  2.18332  0  0  1.05506  0  2.129094  0  0  0.80089  0.958306  0  2.220706  0
Cd  Cd1  1  0.75321817  0.72801884  0.23050675  1  0  1.186468  0  1.604626  0  0  0.998049  0  2.06401  0  0  1.06346  0  2.000786  0  0  0.74814  0.950967  0  2.107126  0
Cd  Cd2  1  0.24678448  0.27198291  0.76949229  1  0  1.186433  0  1.604651  0  0  0.998013  0  2.064033  0  0  1.063424  0  2.000813  0  0  0.748128  0.950927  0  2.10715  0
Cd  Cd3  1  0.50000186  0.50000087  0.49999902  1  0  1.191031  0  1.719131  0  0  0.994486  0  2.185257  0  0  1.049772  0  2.132027  0  0  0.802742  0.954754  0  2.222109  0
H  H4  1  0.91517670  0.33216829  0.86209124  1  0  0.084992  0  0.965202  0  0  0.091953  0  1.033341  0  0  0.094469  0  1.030608  0  0  0.114681  0.090409  0  1.034781  0
H  H5  1  0.08481597  0.66782921  0.13791334  1  0  0.085043  0  0.96537  0  0  0.092023  0  1.033467  0  0  0.094544  0  1.030729  0  0  0.114715  0.090479  0  1.034903  0
H  H6  1  0.69206864  0.51668255  0.82755778  1  0  0.102934  0  0.944719  0  0  0.115073  0  0.998706  0  0  0.11758  0  0.99933  0  0  0.108934  0.113215  0  0.998521  0
H  H7  1  0.30792708  0.48331601  0.17244666  1  0  0.102986  0  0.944821  0  0  0.115133  0  0.998776  0  0  0.11764  0  0.999402  0  0  0.108962  0.113276  0  0.99859  0
H  H8  1  0.44213000  0.44466726  0.90760490  1  0  0.097797  0  0.972896  0  0  0.105665  0  1.040244  0  0  0.108337  0  1.038659  0  0  0.105322  0.103867  0  1.041027  0
H  H9  1  0.55786442  0.55533237  0.09239800  1  0  0.097795  0  0.972989  0  0  0.105702  0  1.040295  0  0  0.108335  0  1.038753  0  0  0.105325  0.103905  0  1.041077  0
H  H10  1  0.43170461  0.19060314  0.01410265  1  0  0.107693  0  0.943566  0  0  0.120842  0  0.99704  0  0  0.123138  0  0.997217  0  0  0.112171  0.119114  0  0.997192  0
H  H11  1  0.56828764  0.80939649  0.98589838  1  0  0.107692  0  0.943726  0  0  0.120845  0  0.997171  0  0  0.123142  0  0.99735  0  0  0.112167  0.119119  0  0.99732  0
H  H12  1  0.66497163  0.01821403  0.04079792  1  0  0.087018  0  0.964233  0  0  0.093761  0  1.033082  0  0  0.096324  0  1.030375  0  0  0.115585  0.091931  0  1.03491  0
H  H13  1  0.33501996  0.98178347  0.95920612  1  0  0.086983  0  0.964193  0  0  0.09373  0  1.033049  0  0  0.096295  0  1.030339  0  0  0.115547  0.091903  0  1.03487  0
H  H14  1  0.98161677  0.79749759  0.84286794  1  0  0.144125  0  0.98183  0  0  0.159282  0  1.044644  0  0  0.162777  0  1.04285  0  0  0.090996  0.156635  0  1.046186  0
H  H15  1  0.01838913  0.20250414  0.15713040  1  0  0.144072  0  0.981878  0  0  0.159229  0  1.044697  0  0  0.162723  0  1.042905  0  0  0.090981  0.156581  0  1.046237  0
H  H16  1  0.84002512  0.70878748  0.84621184  1  0  0.13229  0  0.933889  0  0  0.151591  0  0.99235  0  0  0.153988  0  0.991568  0  0  0.096949  0.149851  0  0.993127  0
H  H17  1  0.15997862  0.29121426  0.15378852  1  0  0.132263  0  0.933985  0  0  0.151573  0  0.99244  0  0  0.15397  0  0.991658  0  0  0.096945  0.149833  0  0.99322  0
H  H18  1  0.00546349  0.60530439  0.88363361  1  0  0.156502  0  0.943902  0  0  0.172813  0  1.005084  0  0  0.175708  0  1.004357  0  0  0.100007  0.170683  0  1.005839  0
H  H19  1  0.99454133  0.39469735  0.11636574  1  0  0.156486  0  0.943881  0  0  0.172799  0  1.005069  0  0  0.17569  0  1.004346  0  0  0.100008  0.170669  0  1.005826  0
H  H20  1  0.83748866  0.97297106  0.46155961  1  0  0.118089  0  0.967777  0  0  0.135342  0  1.032257  0  0  0.13783  0  1.030917  0  0  0.088976  0.133432  0  1.033433  0
H  H21  1  0.16251528  0.02702961  0.53843941  1  0  0.118123  0  0.967737  0  0  0.135378  0  1.032211  0  0  0.137867  0  1.030869  0  0  0.088985  0.133469  0  1.033389  0
H  H22  1  0.83207717  0.13992563  0.35570533  1  0  0.131272  0  0.959578  0  0  0.151063  0  1.018076  0  0  0.152808  0  1.019098  0  0  0.09594  0.149613  0  1.017471  0
H  H23  1  0.16792588  0.86007397  0.64429259  1  0  0.13129  0  0.959539  0  0  0.151075  0  1.018046  0  0  0.152821  0  1.019068  0  0  0.095941  0.149628  0  1.017444  0
H  H24  1  0.00213960  0.02173340  0.36570123  1  0  0.124475  0  0.960156  0  0  0.145824  0  1.019352  0  0  0.147481  0  1.019357  0  0  0.095791  0.144303  0  1.019866  0
H  H25  1  0.99786543  0.97826727  0.63429834  1  0  0.124437  0  0.960164  0  0  0.145814  0  1.019324  0  0  0.147471  0  1.019328  0  0  0.095791  0.144294  0  1.019835  0
H  H26  1  0.24225021  0.74375876  0.38959992  1  0  0.148341  0  0.972578  0  0  0.163472  0  1.034566  0  0  0.166905  0  1.032655  0  0  0.094374  0.16094  0  1.036043  0
H  H27  1  0.75775236  0.25623763  0.61039656  1  0  0.148285  0  0.972674  0  0  0.163421  0  1.034661  0  0  0.166855  0  1.032748  0  0  0.094348  0.160887  0  1.036135  0
H  H28  1  0.22977425  0.85424179  0.25056229  1  0  0.145318  0  0.945075  0  0  0.163892  0  1.001781  0  0  0.165967  0  1.002606  0  0  0.100433  0.162455  0  1.001156  0
H  H29  1  0.77022920  0.14575566  0.74943452  1  0  0.145326  0  0.945038  0  0  0.163903  0  1.001744  0  0  0.165979  0  1.002567  0  0  0.100428  0.162464  0  1.001126  0
H  H30  1  0.24773894  0.93145719  0.35064190  1  0  0.124974  0  0.952134  0  0  0.14381  0  1.013756  0  0  0.14591  0  1.012897  0  0  0.095844  0.14207  0  1.014877  0
H  H31  1  0.75226039  0.06853920  0.64935606  1  0  0.124984  0  0.952231  0  0  0.143821  0  1.013846  0  0  0.145921  0  1.012987  0  0  0.095848  0.142081  0  1.014969  0
H  H32  1  0.11625875  0.35255565  0.37315512  1  0  0.124683  0  0.953529  0  0  0.140786  0  1.017061  0  0  0.143618  0  1.01588  0  0  0.088747  0.138872  0  1.017795  0
H  H33  1  0.88374627  0.64744501  0.62684367  1  0  0.12472  0  0.953479  0  0  0.140816  0  1.01702  0  0  0.143642  0  1.015844  0  0  0.088761  0.138901  0  1.017754  0
H  H34  1  0.98878339  0.23830195  0.45845687  1  0  0.123024  0  0.958245  0  0  0.144444  0  1.017985  0  0  0.14593  0  1.018546  0  0  0.094086  0.143302  0  1.017781  0
H  H35  1  0.01122143  0.76169979  0.54154171  1  0  0.123006  0  0.958208  0  0  0.144462  0  1.017906  0  0  0.145947  0  1.018468  0  0  0.094081  0.14332  0  1.017705  0
H  H36  1  0.02806472  0.36051782  0.51422849  1  0  0.145572  0  0.939957  0  0  0.166269  0  0.994938  0  0  0.168448  0  0.994777  0  0  0.100515  0.164411  0  0.995367  0
H  H37  1  0.97193922  0.63948285  0.48577131  1  0  0.145581  0  0.939976  0  0  0.166294  0  0.994927  0  0  0.168473  0  0.994766  0  0  0.100516  0.164435  0  0.99535  0
H  H38  1  0.35779123  0.24441824  0.51508867  1  0  0.091192  0  0.97581  0  0  0.095086  0  1.047863  0  0  0.098282  0  1.044502  0  0  0.114623  0.092676  0  1.050458  0
H  H39  1  0.64221014  0.75558457  0.48491039  1  0  0.091151  0  0.97579  0  0  0.095051  0  1.04785  0  0  0.098247  0  1.04449  0  0  0.114626  0.092638  0  1.050443  0
H  H40  1  0.36878051  0.07505401  0.40558321  1  0  0.094008  0  0.962704  0  0  0.106685  0  1.019012  0  0  0.108837  0  1.019727  0  0  0.105629  0.105044  0  1.018863  0
H  H41  1  0.63122214  0.92494773  0.59441583  1  0  0.09401  0  0.962646  0  0  0.106705  0  1.01894  0  0  0.10886  0  1.019646  0  0  0.105638  0.105067  0  1.018791  0
H  H42  1  0.53818505  0.09317173  0.21684815  1  0  0.104423  0  0.992086  0  0  0.112148  0  1.057784  0  0  0.114969  0  1.055934  0  0  0.105838  0.110095  0  1.059201  0
H  H43  1  0.46181673  0.90682894  0.78315212  1  0  0.104419  0  0.992078  0  0  0.112159  0  1.057767  0  0  0.114982  0  1.055914  0  0  0.105821  0.110105  0  1.059183  0
H  H44  1  0.69813074  0.28210624  0.14487994  1  0  0.111153  0  0.947325  0  0  0.121618  0  1.003868  0  0  0.123978  0  1.005116  0  0  0.110934  0.11975  0  1.003483  0
H  H45  1  0.30187252  0.71789229  0.85511898  1  0  0.1111  0  0.947257  0  0  0.121569  0  1.003811  0  0  0.123927  0  1.00506  0  0  0.110912  0.119698  0  1.003424  0
H  H46  1  0.67886481  0.44063654  0.26598026  1  0  0.081954  0  0.959034  0  0  0.088689  0  1.029666  0  0  0.09114  0  1.026787  0  0  0.11682  0.086956  0  1.031435  0
H  H47  1  0.32113933  0.55936305  0.73401899  1  0  0.081902  0  0.959016  0  0  0.088626  0  1.029669  0  0  0.091085  0  1.026779  0  0  0.116792  0.086894  0  1.03144  0
C  C48  1  0.80615949  0.30500415  0.89498366  1  0  0.123055  0  3.701004  0  0  0.092657  0  3.946925  0  0  0.099329  0  3.966468  0  0  0.047058  0.088214  0  3.933311  0
C  C49  1  0.19383534  0.69499334  0.10501967  1  0  0.123056  0  3.701133  0  0  0.09264  0  3.947036  0  0  0.09931  0  3.966583  0  0  0.047004  0.088189  0  3.933423  0
C  C50  1  0.68087541  0.40764837  0.87593355  1  0  -0.114783  0  3.727562  0  0  -0.122453  0  3.971025  0  0  -0.129916  0  3.993576  0  0  -0.079562  -0.117832  0  3.956059  0
C  C51  1  0.31912072  0.59234804  0.12407055  1  0  -0.114927  0  3.727697  0  0  -0.122608  0  3.971185  0  0  -0.130071  0  3.993723  0  0  -0.079608  -0.117986  0  3.956222  0
C  C52  1  0.54327904  0.36827559  0.91974537  1  0  -0.007986  0  3.714236  0  0  -0.029238  0  3.963742  0  0  -0.026339  0  3.98392  0  0  -0.065408  -0.03086  0  3.949625  0
C  C53  1  0.45671451  0.63172297  0.08025875  1  0  -0.007984  0  3.714315  0  0  -0.029274  0  3.963798  0  0  -0.026346  0  3.983999  0  0  -0.065437  -0.030899  0  3.94969  0
C  C54  1  0.53629671  0.22668163  0.97957036  1  0  -0.10245  0  3.722688  0  0  -0.114187  0  3.972803  0  0  -0.12102  0  3.994846  0  0  -0.079329  -0.10977  0  3.958019  0
C  C55  1  0.46369662  0.77331800  0.02043044  1  0  -0.102346  0  3.722834  0  0  -0.11407  0  3.972926  0  0  -0.120905  0  3.994959  0  0  -0.079247  -0.109653  0  3.958147  0
C  C56  1  0.66607475  0.12972007  0.99452632  1  0  0.120893  0  3.696732  0  0  0.089686  0  3.947448  0  0  0.096739  0  3.965631  0  0  0.046459  0.084975  0  3.934881  0
C  C57  1  0.33392224  0.87027741  0.00547655  1  0  0.120931  0  3.696575  0  0  0.089714  0  3.947283  0  0  0.096768  0  3.965465  0  0  0.046507  0.085004  0  3.934708  0
C  C58  1  0.85911571  0.70626696  0.00814654  1  0  0.749346  0  3.824501  0  0  0.708878  0  4.112618  0  0  0.743593  0  4.106068  0  0  0.203734  0.685542  0  4.116119  0
C  C59  1  0.14088910  0.29373478  0.99185203  1  0  0.749205  0  3.824539  0  0  0.708706  0  4.112721  0  0  0.743419  0  4.106173  0  0  0.203649  0.685371  0  4.116217  0
C  C60  1  0.92673262  0.70609653  0.88729420  1  0  -0.462432  0  3.645589  0  0  -0.531491  0  3.867453  0  0  -0.539641  0  3.868862  0  0  -0.250473  -0.525877  0  3.866831  0
C  C61  1  0.07327262  0.29390306  0.11270715  1  0  -0.462294  0  3.645629  0  0  -0.531351  0  3.867499  0  0  -0.539494  0  3.868914  0  0  -0.250453  -0.525737  0  3.866878  0
C  C62  1  0.86468642  0.95719340  0.29164922  1  0  0.763022  0  3.854998  0  0  0.720771  0  4.149171  0  0  0.755912  0  4.141042  0  0  0.206849  0.696721  0  4.153772  0
C  C63  1  0.13531644  0.04280727  0.70835082  1  0  0.762954  0  3.855103  0  0  0.720765  0  4.149177  0  0  0.755907  0  4.141046  0  0  0.206825  0.696715  0  4.153773  0
C  C64  1  0.88452240  0.02631706  0.37494915  1  0  -0.449182  0  3.662717  0  0  -0.522427  0  3.891561  0  0  -0.529837  0  3.895094  0  0  -0.247368  -0.516787  0  3.889152  0
C  C65  1  0.11548196  0.97368146  0.62505110  1  0  -0.449178  0  3.662701  0  0  -0.522457  0  3.89154  0  0  -0.529868  0  3.89507  0  0  -0.247365  -0.516821  0  3.889139  0
C  C66  1  0.44581976  0.80414885  0.28219383  1  0  0.754607  0  3.83039  0  0  0.713887  0  4.11599  0  0  0.748557  0  4.109996  0  0  0.203657  0.690356  0  4.118942  0
C  C67  1  0.55418309  0.19585182  0.71780465  1  0  0.754656  0  3.830367  0  0  0.713916  0  4.116003  0  0  0.748583  0  4.110007  0  0  0.203671  0.690381  0  4.118956  0
C  C68  1  0.28093876  0.83311215  0.32179904  1  0  -0.460006  0  3.648007  0  0  -0.528861  0  3.870906  0  0  -0.53677  0  3.873286  0  0  -0.248125  -0.523214  0  3.869322  0
C  C69  1  0.71906233  0.16688638  0.67819802  1  0  -0.460024  0  3.64821  0  0  -0.528887  0  3.871101  0  0  -0.536796  0  3.873478  0  0  -0.248131  -0.523236  0  3.869524  0
C  C70  1  0.88607775  0.45624886  0.39614902  1  0  0.756617  0  3.858872  0  0  0.715419  0  4.153701  0  0  0.750289  0  4.145746  0  0  0.204127  0.691783  0  4.158059  0
C  C71  1  0.11392726  0.54375180  0.60384900  1  0  0.756628  0  3.858833  0  0  0.715415  0  4.153684  0  0  0.750285  0  4.14573  0  0  0.204137  0.691788  0  4.158035  0
C  C72  1  0.01371828  0.34584098  0.43702113  1  0  -0.451241  0  3.654587  0  0  -0.522685  0  3.881033  0  0  -0.530194  0  3.88399  0  0  -0.246973  -0.517265  0  3.878993  0
C  C73  1  0.98628654  0.65416075  0.56297745  1  0  -0.451322  0  3.654488  0  0  -0.522796  0  3.880915  0  0  -0.530301  0  3.883876  0  0  -0.247014  -0.517378  0  3.878874  0
C  C74  1  0.43241835  0.24924543  0.43307970  1  0  0.123274  0  3.704285  0  0  0.093601  0  3.948943  0  0  0.100551  0  3.968483  0  0  0.046033  0.089008  0  3.935706  0
C  C75  1  0.56758430  0.75075631  0.56691934  1  0  0.123329  0  3.7041  0  0  0.093625  0  3.948798  0  0  0.100574  0  3.968343  0  0  0.046006  0.089037  0  3.935559  0
C  C76  1  0.43797503  0.15584038  0.37085311  1  0  -0.121148  0  3.743884  0  0  -0.129612  0  3.987415  0  0  -0.137914  0  4.010963  0  0  -0.08304  -0.124188  0  3.971722  0
C  C77  1  0.56202655  0.84416137  0.62914616  1  0  -0.121095  0  3.743683  0  0  -0.129558  0  3.987207  0  0  -0.13786  0  4.010757  0  0  -0.082972  -0.124144  0  3.971521  0
C  C78  1  0.53288601  0.16664723  0.26544949  1  0  -0.01227  0  3.719166  0  0  -0.032113  0  3.963895  0  0  -0.028736  0  3.983484  0  0  -0.067924  -0.03427  0  3.950818  0
C  C79  1  0.46711793  0.83335343  0.73454953  1  0  -0.012358  0  3.719183  0  0  -0.032228  0  3.963919  0  0  -0.028851  0  3.983507  0  0  -0.067957  -0.034384  0  3.950839  0
C  C80  1  0.62067428  0.27073446  0.22589739  1  0  -0.116611  0  3.726008  0  0  -0.124939  0  3.972146  0  0  -0.132916  0  3.995092  0  0  -0.079984  -0.120088  0  3.957266  0
C  C81  1  0.37932878  0.72926514  0.77410132  1  0  -0.11653  0  3.725901  0  0  -0.124846  0  3.972021  0  0  -0.132823  0  3.994974  0  0  -0.079984  -0.119989  0  3.957137  0
C  C82  1  0.61092024  0.35918271  0.29330893  1  0  0.120607  0  3.707248  0  0  0.090543  0  3.953771  0  0  0.097535  0  3.973074  0  0  0.047026  0.085955  0  3.940552  0
C  C83  1  0.38908390  0.64081688  0.70669031  1  0  0.120632  0  3.707244  0  0  0.090569  0  3.953751  0  0  0.097556  0  3.973051  0  0  0.04707  0.085974  0  3.940541  0
N  N84  1  0.79871428  0.16838600  0.95392760  1  0  -0.355498  0  3.287516  0  0  -0.271726  0  3.551627  0  0  -0.293154  0  3.571491  0  0  -0.335116  -0.256547  0  3.537424  0
N  N85  1  0.20127859  0.83161042  0.04607565  1  0  -0.355577  0  3.287323  0  0  -0.271801  0  3.551445  0  0  -0.293231  0  3.57131  0  0  -0.33515  -0.256617  0  3.537233  0
N  N86  1  0.51810108  0.34880797  0.39474495  1  0  -0.346115  0  3.28913  0  0  -0.2607  0  3.54896  0  0  -0.282561  0  3.569095  0  0  -0.336506  -0.245458  0  3.534845  0
N  N87  1  0.48190157  0.65119377  0.60525409  1  0  -0.346097  0  3.28909  0  0  -0.260664  0  3.548924  0  0  -0.282525  0  3.569058  0  0  -0.336513  -0.245422  0  3.53481  0
O  O88  1  0.87186952  0.80859972  0.04549142  1  0  -0.725367  0  2.058081  0  0  -0.637984  0  2.330901  0  0  -0.672586  0  2.315532  0  0  -0.343125  -0.613773  0  2.340205  0
O  O89  1  0.12813572  0.19139987  0.95450914  1  0  -0.725362  0  2.058124  0  0  -0.637937  0  2.330898  0  0  -0.672549  0  2.31555  0  0  -0.343089  -0.613726  0  2.340196  0
O  O90  1  0.79049385  0.60951931  0.07289787  1  0  -0.640565  0  1.907438  0  0  -0.584982  0  2.13779  0  0  -0.612363  0  2.128712  0  0  -0.321193  -0.565962  0  2.143246  0
O  O91  1  0.20950840  0.39048457  0.92710073  1  0  -0.640464  0  1.907477  0  0  -0.584863  0  2.137834  0  0  -0.612241  0  2.128756  0  0  -0.321126  -0.565844  0  2.143287  0
O  O92  1  0.91483326  0.01002983  0.18844348  1  0  -0.695064  0  2.013215  0  0  -0.632007  0  2.275318  0  0  -0.660603  0  2.262784  0  0  -0.340681  -0.611537  0  2.283226  0
O  O93  1  0.08517068  0.98997083  0.81155555  1  0  -0.69501  0  2.013257  0  0  -0.631967  0  2.275327  0  0  -0.660559  0  2.262782  0  0  -0.340623  -0.611493  0  2.283226  0
O  O94  1  0.79748397  0.85153572  0.33252928  1  0  -0.671806  0  2.000145  0  0  -0.598582  0  2.252726  0  0  -0.630029  0  2.240135  0  0  -0.333684  -0.576232  0  2.260627  0
O  O95  1  0.20251867  0.14846602  0.66746898  1  0  -0.671816  0  2.000165  0  0  -0.598618  0  2.252723  0  0  -0.630064  0  2.24013  0  0  -0.333719  -0.576268  0  2.260628  0
O  O96  1  0.50951184  0.89362284  0.20216185  1  0  -0.647163  0  1.934863  0  0  -0.590711  0  2.167978  0  0  -0.618653  0  2.159302  0  0  -0.321035  -0.570647  0  2.173001  0
O  O97  1  0.49048884  0.10637783  0.79783555  1  0  -0.647131  0  1.934799  0  0  -0.59069  0  2.167948  0  0  -0.618641  0  2.159296  0  0  -0.321038  -0.570625  0  2.172973  0
O  O98  1  0.52171843  0.68556470  0.33156456  1  0  -0.717228  0  2.065175  0  0  -0.63185  0  2.338468  0  0  -0.666513  0  2.324334  0  0  -0.341355  -0.607214  0  2.346993  0
O  O99  1  0.47828443  0.31443597  0.66843548  1  0  -0.717241  0  2.065178  0  0  -0.631845  0  2.338454  0  0  -0.666519  0  2.324356  0  0  -0.341342  -0.60722  0  2.347007  0
O  O100  1  0.91429486  0.53382935  0.29507287  1  0  -0.679029  0  1.985369  0  0  -0.608804  0  2.237244  0  0  -0.640128  0  2.22464  0  0  -0.34114  -0.586834  0  2.245187  0
O  O101  1  0.08570927  0.46617024  0.70492560  1  0  -0.67896  0  1.985239  0  0  -0.608728  0  2.23711  0  0  -0.64005  0  2.224507  0  0  -0.34114  -0.586763  0  2.245058  0
O  O102  1  0.76168764  0.46414798  0.46404149  1  0  -0.697929  0  1.978982  0  0  -0.635058  0  2.233717  0  0  -0.662933  0  2.22082  0  0  -0.346061  -0.61532  0  2.241876  0
O  O103  1  0.23831846  0.53585268  0.53595629  1  0  -0.697957  0  1.979163  0  0  -0.635091  0  2.233913  0  0  -0.662966  0  2.221017  0  0  -0.34605  -0.615358  0  2.24208  0
