# generated using pymatgen
data_AgH14C12S2NO2
_symmetry_space_group_name_H-M   'P 1'
_cell_length_a   8.91656222
_cell_length_b   12.21984772
_cell_length_c   12.97140000
_cell_angle_alpha   92.43333330
_cell_angle_beta   109.26245501
_cell_angle_gamma   92.65063229
_symmetry_Int_Tables_number   1
_chemical_formula_structural   AgH14C12S2NO2
_chemical_formula_sum   'Ag4 H56 C48 S8 N4 O8'
_cell_volume   1330.30211627
_cell_formula_units_Z   4
loop_
 _symmetry_equiv_pos_site_id
 _symmetry_equiv_pos_as_xyz
  1  'x, y, z'
loop_
 _atom_site_type_symbol
 _atom_site_label
 _atom_site_symmetry_multiplicity
 _atom_site_fract_x
 _atom_site_fract_y
 _atom_site_fract_z
 _atom_site_occupancy
 _atom_site_pbe_bader_charge
 _atom_site_pbe_bader_spin_density
 _atom_site_pbe_cm5_charge
 _atom_site_pbe_ddec_charge
 _atom_site_pbe_ddec_spin_density
 _atom_site_pbe_ddec_sum_bond_order
 _atom_site_pbe_magmom
Ag  Ag0  1  0.62382292  0.36387718  0.23173550  1  0.533545  0  0.4093  0.28061  0  2.153525  0
Ag  Ag1  1  0.37618563  0.63611861  0.76826581  1  0.533586  0  0.40932  0.280621  0  2.153478  0
Ag  Ag2  1  0.81553986  0.03054935  0.52959281  1  0.467865  0  0.364909  0.302171  0  2.376484  0
Ag  Ag3  1  0.18446401  0.96944725  0.47040747  1  0.467797  0  0.364915  0.302175  0  2.376401  0
H  H4  1  0.86376566  0.23262437  0.10742311  1  0.09441  0  0.104594  0.0863  0  0.999019  0
H  H5  1  0.13623734  0.76737552  0.89257556  1  0.094404  0  0.104592  0.086307  0  0.998995  0
H  H6  1  0.91106047  0.27980634  0.99113946  1  0.090574  0  0.102603  0.077572  0  1.009707  0
H  H7  1  0.08893681  0.72019601  0.00885801  1  0.090573  0  0.102597  0.077575  0  1.009686  0
H  H8  1  0.61048032  0.27186963  0.88934973  1  0.052701  0  0.093832  0.056537  0  1.046876  0
H  H9  1  0.38951792  0.72813026  0.11065095  1  0.052695  0  0.093818  0.056543  0  1.046886  0
H  H10  1  0.70159235  0.14344268  0.91446184  1  0.074094  0  0.096691  0.066107  0  1.025414  0
H  H11  1  0.29840842  0.85655885  0.08553870  1  0.074088  0  0.09671  0.066131  0  1.02535  0
H  H12  1  0.43580437  0.13553059  0.79407699  1  0.077734  0  0.099503  0.114044  0  1.042825  0
H  H13  1  0.56419491  0.86446765  0.20592386  1  0.07771  0  0.099512  0.114035  0  1.042876  0
H  H14  1  0.17423034  0.03729104  0.70792299  1  0.093672  0  0.086424  0.080228  0  1.058958  0
H  H15  1  0.82577124  0.96270638  0.29207758  1  0.093672  0  0.086434  0.080243  0  1.058891  0
H  H16  1  0.01292877  0.97428232  0.82157860  1  0.056843  0  0.088563  0.090609  0  1.03585  0
H  H17  1  0.98706829  0.02571756  0.17842258  1  0.056885  0  0.088568  0.090633  0  1.035879  0
H  H18  1  0.12289908  0.01000009  0.02508753  1  0.043427  0  0.096711  0.096396  0  1.030344  0
H  H19  1  0.87709931  0.99000144  0.97491247  1  0.043691  0  0.096711  0.09638  0  1.030386  0
H  H20  1  0.53243498  0.10580692  0.17886208  1  0.118941  0  0.100358  0.122638  0  1.013247  0
H  H21  1  0.46756304  0.89419051  0.82113844  1  0.118887  0  0.100371  0.122645  0  1.013229  0
H  H22  1  0.34408656  0.05496684  0.18541184  1  0.084534  0  0.089594  0.103169  0  1.054  0
H  H23  1  0.65590930  0.94503305  0.81458753  1  0.084522  0  0.08961  0.103202  0  1.053968  0
H  H24  1  0.23665644  0.29044661  0.31796046  1  0.082729  0  0.102717  0.122433  0  0.979831  0
H  H25  1  0.76334433  0.70955491  0.68204008  1  0.082742  0  0.10272  0.122451  0  0.979829  0
H  H26  1  0.26632999  0.14793960  0.30916193  1  0.076815  0  0.094623  0.10539  0  1.034614  0
H  H27  1  0.73366952  0.85206111  0.69083752  1  0.076991  0  0.09462  0.105387  0  1.034655  0
H  H28  1  0.43505663  0.22864862  0.48790739  1  0.046547  0  0.093572  0.065415  0  0.997638  0
H  H29  1  0.56494407  0.77135208  0.51209310  1  0.046578  0  0.093581  0.065433  0  0.997631  0
H  H30  1  0.56165848  0.19056473  0.41249113  1  0.057937  0  0.091907  0.06203  0  1.011153  0
H  H31  1  0.43834088  0.80943433  0.58750900  1  0.05793  0  0.091911  0.062049  0  1.011147  0
H  H32  1  0.75287432  0.32003486  0.52683806  1  0.060716  0  0.097997  0.066527  0  1.002504  0
H  H33  1  0.24712756  0.67996584  0.47315962  1  0.060724  0  0.098  0.066528  0  1.002503  0
H  H34  1  0.63289409  0.38942484  0.59189229  1  0.040656  0  0.094689  0.060491  0  1.009766  0
H  H35  1  0.36710764  0.61057422  0.40810684  1  0.040624  0  0.094683  0.060457  0  1.009745  0
H  H36  1  0.64946648  0.55403646  0.48355946  1  0.040505  0  0.098209  0.068941  0  1.014676  0
H  H37  1  0.35053421  0.44596425  0.51644026  1  0.040505  0  0.098215  0.068962  0  1.014646  0
H  H38  1  0.83468016  0.52340010  0.58082099  1  0.056608  0  0.099961  0.073122  0  0.992018  0
H  H39  1  0.16532053  0.47660060  0.41917873  1  0.056604  0  0.099988  0.073146  0  0.991996  0
H  H40  1  0.93645499  0.55333635  0.33598897  1  0.059423  0  0.100443  0.075844  0  1.020876  0
H  H41  1  0.06354705  0.44666600  0.66401267  1  0.059394  0  0.100429  0.075816  0  1.020865  0
H  H42  1  0.92795409  0.63340026  0.45196433  1  0.04714  0  0.091443  0.069434  0  1.028284  0
H  H43  1  0.07204431  0.36660127  0.54803722  1  0.04718  0  0.091465  0.069459  0  1.028263  0
H  H44  1  0.76617551  0.71422337  0.28390959  1  0.072075  0  0.103245  0.12532  0  1.000156  0
H  H45  1  0.23382147  0.28577569  0.71608768  1  0.072072  0  0.103251  0.125329  0  1.000153  0
H  H46  1  0.63933416  0.66224080  0.35206661  1  0.063086  0  0.099231  0.113774  0  0.98903  0
H  H47  1  0.36066408  0.33775908  0.64793252  1  0.063092  0  0.099228  0.113783  0  0.989098  0
H  H48  1  0.62227557  0.54856612  0.00971769  1  0.103987  0  0.099953  0.116227  0  1.019924  0
H  H49  1  0.37772498  0.45143295  0.99028348  1  0.104019  0  0.099926  0.116174  0  1.019888  0
H  H50  1  0.68231235  0.68290169  0.07386774  1  0.101113  0  0.096867  0.108798  0  1.033742  0
H  H51  1  0.31768344  0.31709738  0.92613389  1  0.101097  0  0.096877  0.108788  0  1.033742  0
H  H52  1  0.95550062  0.73415215  0.17523483  1  0.040802  0  0.095151  0.100374  0  1.018881  0
H  H53  1  0.04449651  0.26584856  0.82476023  1  0.04083  0  0.095139  0.100358  0  1.018854  0
H  H54  1  0.23827383  0.68889567  0.24254607  1  0.058784  0  0.083384  0.080522  0  1.071491  0
H  H55  1  0.76172361  0.31110832  0.75744996  1  0.059166  0  0.083378  0.080522  0  1.071509  0
H  H56  1  0.30762488  0.49418037  0.22213478  1  0.048153  0  0.086018  0.075032  0  1.064412  0
H  H57  1  0.69237486  0.50582280  0.77786559  1  0.048122  0  0.086036  0.075021  0  1.064443  0
H  H58  1  0.09711540  0.35012952  0.13382377  1  0.063698  0  0.088148  0.086047  0  1.111957  0
H  H59  1  0.90288664  0.64987283  0.86617863  1  0.063665  0  0.088124  0.086007  0  1.111962  0
C  C60  1  0.81987714  0.27550393  0.03119594  1  0.37669  0  -0.070132  -0.005138  0  3.871493  0
C  C61  1  0.18012237  0.72449677  0.96880428  1  0.376634  0  -0.070109  -0.005115  0  3.871373  0
C  C62  1  0.67084453  0.21697912  0.95334324  1  0.419822  0  -0.071371  -0.003983  0  3.903593  0
C  C63  1  0.32915483  0.78301995  0.04665689  1  0.419938  0  -0.071369  -0.004046  0  3.903553  0
C  C64  1  0.42704057  0.13019896  0.95911120  1  0.433493  0  0.081136  0.201964  0  4.035146  0
C  C65  1  0.57295879  0.86980010  0.04088892  1  0.433645  0  0.081118  0.201899  0  4.035167  0
C  C66  1  0.36718087  0.10987376  0.84528274  1  -0.065188  0  -0.113803  -0.221101  0  4.002407  0
C  C67  1  0.63281729  0.89012530  0.15471712  1  -0.065187  0  -0.113793  -0.221026  0  4.002354  0
C  C68  1  0.21823127  0.05409109  0.79644670  1  -0.013669  0  -0.094618  -0.052747  0  4.020832  0
C  C69  1  0.78176683  0.94590715  0.20355311  1  -0.013676  0  -0.094636  -0.052794  0  4.020753  0
C  C70  1  0.12844409  0.01848096  0.86004065  1  -0.126968  0  -0.111728  -0.113739  0  4.048121  0
C  C71  1  0.87155415  0.98151893  0.13995926  1  -0.126975  0  -0.111737  -0.113798  0  4.048169  0
C  C72  1  0.18981311  0.03864529  0.97346949  1  0.021469  0  -0.097306  -0.126443  0  4.009317  0
C  C73  1  0.81018506  0.96135378  0.02653037  1  0.021479  0  -0.097291  -0.126372  0  4.009331  0
C  C74  1  0.33874480  0.09329860  0.02476180  1  -0.004601  0  -0.029979  0.012613  0  3.992629  0
C  C75  1  0.66125464  0.90670129  0.97523837  1  -0.004622  0  -0.029974  0.012609  0  3.992644  0
C  C76  1  0.40347796  0.11278006  0.14657767  1  -0.127904  0  -0.150807  -0.216414  0  3.888688  0
C  C77  1  0.59652020  0.88721901  0.85342296  1  -0.127773  0  -0.150838  -0.216461  0  3.888729  0
C  C78  1  0.32343616  0.23059382  0.31430111  1  -0.108418  0  -0.150692  -0.208436  0  3.891039  0
C  C79  1  0.67656453  0.76940689  0.68569861  1  -0.108642  0  -0.150705  -0.208451  0  3.891078  0
C  C80  1  0.46952075  0.24683986  0.41562648  1  0.434621  0  -0.079693  0.028234  0  3.941428  0
C  C81  1  0.53048113  0.75316085  0.58437505  1  0.434596  0  -0.079688  0.028213  0  3.941435  0
C  C82  1  0.66691217  0.38432631  0.51743465  1  0.424728  0  -0.074797  -0.002277  0  3.937706  0
C  C83  1  0.33308845  0.61567358  0.48256502  1  0.424863  0  -0.074776  -0.002217  0  3.937624  0
C  C84  1  0.74134404  0.49363293  0.50356523  1  0.431565  0  -0.075576  -0.004369  0  3.909114  0
C  C85  1  0.25865665  0.50636778  0.49643449  1  0.43135  0  -0.075618  -0.004425  0  3.909093  0
C  C86  1  0.85833306  0.57752731  0.38171434  1  0.473615  0  -0.083043  0.012994  0  3.93407  0
C  C87  1  0.14166771  0.42247422  0.61828620  1  0.473574  0  -0.083028  0.013034  0  3.934032  0
C  C88  1  0.72079605  0.63811879  0.30860702  1  -0.117788  0  -0.15439  -0.224665  0  3.90388  0
C  C89  1  0.27920331  0.36188028  0.69139233  1  -0.117796  0  -0.154403  -0.224724  0  3.903957  0
C  C90  1  0.69477235  0.59502336  0.08547626  1  -0.145095  0  -0.143518  -0.204758  0  3.902358  0
C  C91  1  0.30522701  0.40497570  0.91452309  1  -0.145119  0  -0.143528  -0.204676  0  3.90225  0
C  C92  1  0.86470222  0.56829791  0.11943092  1  0.034999  0  -0.030631  0.00855  0  3.996685  0
C  C93  1  0.13529848  0.43170280  0.88056804  1  0.035406  0  -0.03062  0.008516  0  3.996715  0
C  C94  1  0.98669173  0.64943701  0.16750075  1  0.011715  0  -0.096654  -0.123546  0  3.991522  0
C  C95  1  0.01330912  0.35056534  0.83249676  1  0.011506  0  -0.096576  -0.123423  0  3.991405  0
C  C96  1  0.14601677  0.62393695  0.20502820  1  -0.113456  0  -0.112853  -0.11799  0  4.056925  0
C  C97  1  0.85398163  0.37606458  0.79496872  1  -0.113749  0  -0.112871  -0.118048  0  4.056887  0
C  C98  1  0.18386565  0.51572111  0.19363619  1  -0.039989  0  -0.098294  -0.059789  0  4.034027  0
C  C99  1  0.81613535  0.48428288  0.80636450  1  -0.039961  0  -0.098317  -0.059778  0  4.033939  0
C  C100  1  0.06456442  0.43354129  0.14415308  1  -0.016395  0  -0.11685  -0.218433  0  4.025224  0
C  C101  1  0.93543754  0.56646024  0.85584851  1  -0.016412  0  -0.116812  -0.218393  0  4.025131  0
C  C102  1  0.90540053  0.45945994  0.10660104  1  0.445205  0  0.082624  0.209712  0  4.031422  0
C  C103  1  0.09460128  0.54053995  0.89339967  1  0.444954  0  0.082602  0.209695  0  4.031449  0
C  C104  1  0.89633084  0.20324213  0.36377151  1  0.630598  0  0.143915  0.256923  0  4.225245  0
C  C105  1  0.10367906  0.79675530  0.63623325  1  0.630723  0  0.143986  0.257049  0  4.225369  0
C  C106  1  0.54671453  0.06206802  0.63464259  1  0.531201  0  0.142676  0.251262  0  4.265921  0
C  C107  1  0.45327904  0.93793269  0.36535628  1  0.531056  0  0.142631  0.25127  0  4.265809  0
S  S108  1  0.35789901  0.25054064  0.18527899  1  -0.015759  0  -0.007066  0.059275  0  2.953742  0
S  S109  1  0.64210517  0.74945924  0.81472149  1  -0.015771  0  -0.007065  0.059278  0  2.953705  0
S  S110  1  0.59507221  0.56015519  0.18481621  1  -0.006307  0  -0.009045  0.053249  0  3.009331  0
S  S111  1  0.40492922  0.43984059  0.81518503  1  -0.006323  0  -0.00904  0.05326  0  3.009312  0
S  S112  1  0.01456651  0.14956634  0.47327470  1  0.015149  0  -0.167235  -0.287784  0  2.909493  0
S  S113  1  0.98543871  0.85043191  0.52672826  1  0.015133  0  -0.167269  -0.287848  0  2.909456  0
S  S114  1  0.73888197  0.09145272  0.69169140  1  0.066535  0  -0.150426  -0.289843  0  2.712211  0
S  S115  1  0.26111762  0.90854881  0.30830810  1  0.066603  0  -0.150406  -0.289828  0  2.712398  0
N  N116  1  0.81276917  0.24530833  0.28706622  1  -1.253879  0  -0.386667  -0.397789  0  3.19409  0
N  N117  1  0.18723843  0.75468992  0.71293343  1  -1.253968  0  -0.386715  -0.397862  0  3.194294  0
N  N118  1  0.40772505  0.04154256  0.59687553  1  -1.237546  0  -0.398368  -0.420583  0  3.214201  0
N  N119  1  0.59227817  0.95845979  0.40312714  1  -1.237497  0  -0.398347  -0.420613  0  3.213985  0
O  O120  1  0.78165490  0.38475474  0.05540297  1  -1.084993  0  -0.179648  -0.202474  0  2.605438  0
O  O121  1  0.21834565  0.61524432  0.94459896  1  -1.085058  0  -0.179677  -0.202503  0  2.605384  0
O  O122  1  0.56915599  0.18596111  0.01431404  1  -1.080959  0  -0.175689  -0.191702  0  2.587107  0
O  O123  1  0.43084448  0.81403713  0.98568630  1  -1.081117  0  -0.175685  -0.191624  0  2.587117  0
O  O124  1  0.52953432  0.35824351  0.42315383  1  -1.059078  0  -0.237247  -0.239097  0  2.557661  0
O  O125  1  0.47046630  0.64175638  0.57684584  1  -1.059036  0  -0.237255  -0.239114  0  2.557643  0
O  O126  1  0.80872119  0.47829793  0.41847545  1  -1.042625  0  -0.232885  -0.213807  0  2.556479  0
O  O127  1  0.19128069  0.52170278  0.58152532  1  -1.042521  0  -0.232904  -0.213815  0  2.556467  0
