# generated using pymatgen
data_CdH21C28(NO)4
_symmetry_space_group_name_H-M   'P 1'
_cell_length_a   10.66691767
_cell_length_b   13.14423140
_cell_length_c   20.95518687
_cell_angle_alpha   89.99999974
_cell_angle_beta   90.00007733
_cell_angle_gamma   113.92969970
_symmetry_Int_Tables_number   1
_chemical_formula_structural   CdH21C28(NO)4
_chemical_formula_sum   'Cd4 H84 C112 N16 O16'
_cell_volume   2685.54661917
_cell_formula_units_Z   4
loop_
 _symmetry_equiv_pos_site_id
 _symmetry_equiv_pos_as_xyz
  1  'x, y, z'
loop_
 _atom_site_type_symbol
 _atom_site_label
 _atom_site_symmetry_multiplicity
 _atom_site_fract_x
 _atom_site_fract_y
 _atom_site_fract_z
 _atom_site_occupancy
 _atom_site_pbe_bader_charge
 _atom_site_pbe_bader_spin_density
 _atom_site_pbe_cm5_charge
 _atom_site_pbe_ddec_charge
 _atom_site_pbe_ddec_spin_density
 _atom_site_pbe_ddec_sum_bond_order
 _atom_site_pbe_magmom
Cd  Cd0  1  0.60128230  0.46418402  0.56503311  1  1.22852  0  0.77003  0.846044  0  2.191852  0
Cd  Cd1  1  0.39871519  0.53581497  0.06503320  1  1.228488  0  0.770039  0.846074  0  2.19182  0
Cd  Cd2  1  0.13742648  0.53591054  0.43473585  1  1.228258  0  0.7702  0.845484  0  2.192884  0
Cd  Cd3  1  0.86257311  0.46408883  0.93473593  1  1.228182  0  0.770171  0.845494  0  2.192889  0
H  H4  1  0.79138539  0.53204121  0.35729606  1  0.079889  0  0.099865  0.100558  0  1.054049  0
H  H5  1  0.20861480  0.46795975  0.85729665  1  0.07988  0  0.099867  0.100565  0  1.054026  0
H  H6  1  0.25917336  0.46805671  0.64242767  1  0.068957  0  0.099919  0.100666  0  1.053724  0
H  H7  1  0.74083041  0.53195068  0.14242848  1  0.069367  0  0.09996  0.100729  0  1.053646  0
H  H8  1  0.63840838  0.62799460  0.18736958  1  0.075842  0  0.09641  0.093305  0  1.048201  0
H  H9  1  0.36159105  0.37200951  0.68736884  1  0.07585  0  0.096429  0.093301  0  1.048253  0
H  H10  1  0.01023298  0.37221216  0.81235019  1  0.078072  0  0.096617  0.093177  0  1.048431  0
H  H11  1  0.98976966  0.62779208  0.31235117  1  0.078026  0  0.096602  0.093151  0  1.048412  0
H  H12  1  0.43211353  0.61422220  0.24648948  1  0.08832  0  0.102262  0.10781  0  1.006203  0
H  H13  1  0.56788204  0.38577198  0.74648936  1  0.088402  0  0.102273  0.107826  0  1.00617  0
H  H14  1  0.81767272  0.38588386  0.75319757  1  0.103017  0  0.102332  0.107968  0  1.005958  0
H  H15  1  0.18232838  0.61411949  0.25319752  1  0.103091  0  0.102333  0.107981  0  1.005996  0
H  H16  1  0.43464534  0.61913227  0.51323394  1  0.213653  0  0.132062  0.11824  0  1.053749  0
H  H17  1  0.56535063  0.38086583  0.01323415  1  0.213649  0  0.132057  0.118195  0  1.053898  0
H  H18  1  0.81569604  0.38134914  0.48665545  1  0.218563  0  0.131887  0.118281  0  1.054975  0
H  H19  1  0.18430372  0.61865029  0.98665698  1  0.218506  0  0.131856  0.118249  0  1.054901  0
H  H20  1  0.58673055  0.61628139  0.69936118  1  0.122809  0  0.121519  0.123924  0  0.998481  0
H  H21  1  0.41327496  0.38372356  0.19936176  1  0.122329  0  0.121546  0.123932  0  0.998513  0
H  H22  1  0.97059483  0.38358361  0.30057413  1  0.116466  0  0.12141  0.123445  0  0.997691  0
H  H23  1  0.02940850  0.61641645  0.80057507  1  0.116345  0  0.121413  0.123417  0  0.997705  0
H  H24  1  0.46010532  0.76418998  0.69629221  1  0.12977  0  0.119025  0.121342  0  1.033643  0
H  H25  1  0.53989924  0.23581497  0.19629288  1  0.130058  0  0.119004  0.121307  0  1.033725  0
H  H26  1  0.69606748  0.23569724  0.30375749  1  0.133855  0  0.119096  0.121499  0  1.034111  0
H  H27  1  0.30393597  0.76430116  0.80375862  1  0.133772  0  0.119074  0.12147  0  1.034056  0
H  H28  1  0.26768189  0.71931351  0.54264140  1  0.104969  0  0.11647  0.107454  0  0.997644  0
H  H29  1  0.73231324  0.28068462  0.04264125  1  0.10501  0  0.116467  0.10744  0  0.997701  0
H  H30  1  0.54859257  0.28096608  0.45732276  1  0.104725  0  0.116331  0.10683  0  0.998322  0
H  H31  1  0.45141096  0.71903165  0.95732400  1  0.104632  0  0.116312  0.106804  0  0.998283  0
H  H32  1  0.42624079  0.83817287  0.53870400  1  0.044557  0  0.113354  0.098108  0  0.956327  0
H  H33  1  0.57375422  0.16182693  0.03870326  1  0.044501  0  0.113332  0.098116  0  0.95631  0
H  H34  1  0.58833976  0.16212824  0.46134946  1  0.049172  0  0.113273  0.097687  0  0.956924  0
H  H35  1  0.41166284  0.83786949  0.96135162  1  0.049158  0  0.113296  0.097691  0  0.956908  0
H  H36  1  0.50378520  0.96787216  0.63355835  1  0.069349  0  0.103888  0.107795  0  0.989076  0
H  H37  1  0.49620875  0.03212690  0.13355947  1  0.069292  0  0.103893  0.107773  0  0.989063  0
H  H38  1  0.53553494  0.03191610  0.36666358  1  0.081528  0  0.104137  0.10804  0  0.988826  0
H  H39  1  0.46446590  0.96808237  0.86666625  1  0.081523  0  0.104131  0.107973  0  0.988873  0
H  H40  1  0.42897051  0.05391169  0.72248667  1  0.056113  0  0.101047  0.098707  0  1.015052  0
H  H41  1  0.57102643  0.94608913  0.22248783  1  0.056105  0  0.10103  0.098697  0  1.01506  0
H  H42  1  0.37440682  0.94586858  0.27781440  1  0.052871  0  0.100895  0.098664  0  1.014827  0
H  H43  1  0.62559041  0.05413063  0.77781623  1  0.052886  0  0.100891  0.09862  0  1.014888  0
H  H44  1  0.02302088  0.79183680  0.71168777  1  0.083092  0  0.105404  0.108152  0  0.999585  0
H  H45  1  0.97697707  0.20816234  0.21168635  1  0.082994  0  0.105378  0.108109  0  0.999538  0
H  H46  1  0.23121489  0.20841084  0.28846470  1  0.085839  0  0.105426  0.108313  0  0.999729  0
H  H47  1  0.76878372  0.79158921  0.78846376  1  0.085839  0  0.105415  0.108291  0  0.999742  0
H  H48  1  0.09835797  0.70431572  0.62338746  1  0.144233  0  0.105296  0.122436  0  1.016734  0
H  H49  1  0.90163845  0.29568083  0.12338504  1  0.144262  0  0.105274  0.122396  0  1.016793  0
H  H50  1  0.39442853  0.29600714  0.37662240  1  0.147131  0  0.105279  0.122316  0  1.016526  0
H  H51  1  0.60557411  0.70399301  0.87662136  1  0.147182  0  0.105272  0.122288  0  1.016573  0
H  H52  1  0.09461973  0.35446515  0.95479324  1  0.235548  0  0.135645  0.12288  0  1.042934  0
H  H53  1  0.90538076  0.64553591  0.45479034  1  0.235605  0  0.135658  0.122955  0  1.042918  0
H  H54  1  0.74068303  0.64571569  0.04527019  1  0.19158  0  0.135607  0.122762  0  1.042011  0
H  H55  1  0.25931668  0.35428411  0.54527273  1  0.1918  0  0.135615  0.12282  0  1.041981  0
H  H56  1  0.68665654  0.18369627  0.88989304  1  0.115424  0  0.116835  0.115132  0  1.007572  0
H  H57  1  0.31334114  0.81630139  0.38989260  1  0.115848  0  0.116842  0.115172  0  1.007701  0
H  H58  1  0.50278535  0.81599378  0.11008366  1  0.108321  0  0.116998  0.115849  0  1.008046  0
H  H59  1  0.49721364  0.18400608  0.61008445  1  0.108298  0  0.11698  0.115812  0  1.008065  0
H  H60  1  0.81250318  0.03404644  0.89721585  1  0.080524  0  0.117402  0.11824  0  1.044801  0
H  H61  1  0.18750109  0.96595123  0.39721485  1  0.080477  0  0.117385  0.118234  0  1.045008  0
H  H62  1  0.77813339  0.96590440  0.10297763  1  0.080053  0  0.117273  0.117755  0  1.045693  0
H  H63  1  0.22186745  0.03409546  0.60297824  1  0.080055  0  0.117294  0.11781  0  1.045673  0
H  H64  1  0.05278696  0.08065863  0.98149353  1  0.042462  0  0.104527  0.077589  0  1.019509  0
H  H65  1  0.94721924  0.91934246  0.48149209  1  0.042496  0  0.104538  0.0776  0  1.019551  0
H  H66  1  0.97219044  0.91967669  0.01868926  1  0.043186  0  0.1048  0.077991  0  1.018859  0
H  H67  1  0.02780919  0.08032308  0.51869021  1  0.042851  0  0.104825  0.078043  0  1.018852  0
H  H68  1  0.17958984  0.21126325  0.95696743  1  0.108523  0  0.126134  0.121371  0  0.955335  0
H  H69  1  0.82041389  0.78873864  0.45696590  1  0.108254  0  0.126114  0.121319  0  0.9553  0
H  H70  1  0.96861781  0.78910149  0.04315337  1  0.104304  0  0.126122  0.121104  0  0.955366  0
H  H71  1  0.03138325  0.21089914  0.54315432  1  0.104229  0  0.126128  0.121096  0  0.955402  0
H  H72  1  0.25148895  0.23920215  0.84050035  1  0.06283  0  0.096676  0.097442  0  1.06625  0
H  H73  1  0.74851680  0.76079879  0.34049829  1  0.062823  0  0.096614  0.097363  0  1.066348  0
H  H74  1  0.01230328  0.76096822  0.15962444  1  0.06438  0  0.096868  0.097526  0  1.066036  0
H  H75  1  0.98769815  0.23903253  0.65962557  1  0.064352  0  0.09686  0.097516  0  1.066064  0
H  H76  1  0.30319759  0.15051413  0.74656706  1  0.061904  0  0.096388  0.092978  0  1.038656  0
H  H77  1  0.69680411  0.84948671  0.24656592  1  0.061862  0  0.096367  0.092961  0  1.038698  0
H  H78  1  0.15246316  0.84956169  0.25364799  1  0.057381  0  0.09627  0.092717  0  1.038499  0
H  H79  1  0.84753669  0.15043916  0.75364902  1  0.05734  0  0.096271  0.09273  0  1.038445  0
H  H80  1  0.04472587  0.82711755  0.82139617  1  0.048878  0  0.099228  0.097165  0  1.033586  0
H  H81  1  0.95526857  0.17288337  0.32139665  1  0.048837  0  0.099251  0.09722  0  1.033567  0
H  H82  1  0.21768080  0.17306791  0.17885985  1  0.053758  0  0.099378  0.097111  0  1.03324  0
H  H83  1  0.78231600  0.82693287  0.67885988  1  0.053724  0  0.0994  0.09713  0  1.03323  0
H  H84  1  0.98665716  0.91650231  0.91321959  1  0.030624  0  0.097238  0.095554  0  1.019495  0
H  H85  1  0.01333986  0.08349954  0.41321894  1  0.030648  0  0.097239  0.095559  0  1.019527  0
H  H86  1  0.07041763  0.08378242  0.08693745  1  0.031976  0  0.097565  0.095867  0  1.019117  0
H  H87  1  0.92958117  0.91621908  0.58693806  1  0.032022  0  0.097537  0.095834  0  1.019146  0
C  C88  1  0.58666256  0.51307392  0.43563459  1  1.573568  0  0.190432  0.557337  0  4.240005  0
C  C89  1  0.41333600  0.48691962  0.93563532  1  1.575856  0  0.190491  0.55741  0  4.239847  0
C  C90  1  0.07351248  0.48714949  0.56412146  1  1.561824  0  0.190063  0.555664  0  4.241536  0
C  C91  1  0.92648875  0.51284950  0.06412143  1  1.561801  0  0.190102  0.55574  0  4.241614  0
C  C92  1  0.60079231  0.54866560  0.36707543  1  -0.066576  0  -0.015805  -0.050944  0  3.968538  0
C  C93  1  0.39920500  0.45132954  0.86707663  1  -0.066407  0  -0.015753  -0.050832  0  3.968512  0
C  C94  1  0.05194512  0.45145347  0.63264434  1  -0.067307  0  -0.015834  -0.048898  0  3.966021  0
C  C95  1  0.94805477  0.54854809  0.13264481  1  -0.067473  0  -0.015825  -0.048935  0  3.966029  0
C  C96  1  0.71517921  0.55319373  0.33273505  1  0.012665  0  -0.089245  -0.157715  0  3.962216  0
C  C97  1  0.28482142  0.44680637  0.83273569  1  0.012553  0  -0.089222  -0.157699  0  3.962296  0
C  C98  1  0.16178844  0.44687008  0.66697287  1  0.014017  0  -0.088833  -0.157989  0  3.9613  0
C  C99  1  0.83821280  0.55313401  0.16697327  1  0.013593  0  -0.088906  -0.15805  0  3.961342  0
C  C100  1  0.73076247  0.58036427  0.26766381  1  -0.094271  0  -0.010112  0.065017  0  4.01349  0
C  C101  1  0.26923815  0.41963992  0.76766397  1  -0.094306  0  -0.010151  0.064881  0  4.013542  0
C  C102  1  0.15015110  0.41968094  0.73203934  1  -0.029977  0  -0.009938  0.064575  0  4.014727  0
C  C103  1  0.84985275  0.58032239  0.23203974  1  -0.028997  0  -0.00999  0.064383  0  4.014893  0
C  C104  1  0.62818569  0.60446609  0.23758053  1  -0.037785  0  -0.088131  -0.121052  0  3.974968  0
C  C105  1  0.37181359  0.39553558  0.73758028  1  -0.037936  0  -0.088116  -0.120953  0  3.974951  0
C  C106  1  0.02351700  0.39565722  0.76212492  1  -0.044828  0  -0.088431  -0.120563  0  3.974532  0
C  C107  1  0.97648278  0.60434531  0.26212589  1  -0.045757  0  -0.088359  -0.120372  0  3.974554  0
C  C108  1  0.51269347  0.59847890  0.27105765  1  -0.066536  0  -0.087657  -0.106483  0  3.985561  0
C  C109  1  0.48730301  0.40151697  0.77105843  1  -0.066394  0  -0.087722  -0.106537  0  3.985686  0
C  C110  1  0.91399787  0.40162191  0.72863948  1  -0.078336  0  -0.08742  -0.106291  0  3.985581  0
C  C111  1  0.08600326  0.59837974  0.22864127  1  -0.07846  0  -0.087429  -0.106389  0  3.985545  0
C  C112  1  0.49734672  0.57057752  0.33594754  1  0.013762  0  -0.005396  -0.024666  0  3.925927  0
C  C113  1  0.50264924  0.42941509  0.83594786  1  0.01372  0  -0.00547  -0.02486  0  3.92614  0
C  C114  1  0.92660789  0.42955095  0.66376009  1  0.014939  0  -0.006038  -0.026734  0  3.929441  0
C  C115  1  0.07339261  0.57044980  0.16376091  1  0.015142  0  -0.005993  -0.026579  0  3.929341  0
C  C116  1  0.37252016  0.56646965  0.37073364  1  1.575948  0  0.189026  0.571726  0  4.243118  0
C  C117  1  0.62747372  0.43352050  0.87073499  1  1.575712  0  0.189007  0.571862  0  4.243281  0
C  C118  1  0.80593982  0.43379552  0.62900493  1  1.583089  0  0.188941  0.57254  0  4.243084  0
C  C119  1  0.19405693  0.56620353  0.12900583  1  1.583472  0  0.188862  0.572374  0  4.243286  0
C  C120  1  0.45943529  0.63676415  0.56354226  1  0.934712  0  0.138405  0.090435  0  3.890289  0
C  C121  1  0.54056490  0.36323650  0.06354102  1  0.934718  0  0.138396  0.090443  0  3.89026  0
C  C122  1  0.82285836  0.36356014  0.43637482  1  0.947177  0  0.137439  0.088299  0  3.892411  0
C  C123  1  0.17714353  0.63644006  0.93637634  1  0.947263  0  0.137492  0.088378  0  3.892295  0
C  C124  1  0.53687845  0.63924490  0.66027633  1  0.44541  0  -0.00506  -0.037573  0  4.028728  0
C  C125  1  0.46312610  0.36075835  0.16027647  1  0.446591  0  -0.005121  -0.037678  0  4.028835  0
C  C126  1  0.89778226  0.36077876  0.33966180  1  0.365249  0  -0.005504  -0.037352  0  4.026534  0
C  C127  1  0.10222068  0.63922218  0.83966279  1  0.36529  0  -0.005454  -0.037323  0  4.026564  0
C  C128  1  0.47402978  0.71208878  0.65944883  1  0.245213  0  -0.003867  -0.115399  0  3.936516  0
C  C129  1  0.52597196  0.28791447  0.15944996  1  0.244239  0  -0.003816  -0.11531  0  3.936535  0
C  C130  1  0.76211025  0.28794168  0.34053695  1  0.328136  0  -0.003894  -0.116501  0  3.936756  0
C  C131  1  0.23789051  0.71205677  0.84053899  1  0.327954  0  -0.003892  -0.116402  0  3.936619  0
C  C132  1  0.35454375  0.77559841  0.57103535  1  0.300402  0  -0.043949  -0.10418  0  3.881606  0
C  C133  1  0.64545324  0.22440142  0.07103514  1  0.300393  0  -0.043952  -0.104261  0  3.881713  0
C  C134  1  0.57917801  0.22463445  0.42896846  1  0.294326  0  -0.043304  -0.102393  0  3.88167  0
C  C135  1  0.42082448  0.77536326  0.92897062  1  0.294338  0  -0.043326  -0.102374  0  3.881563  0
C  C136  1  0.30600970  0.83039480  0.62255051  1  -0.055795  0  -0.016122  0.080833  0  4.00203  0
C  C137  1  0.69398485  0.16960175  0.12254985  1  -0.055865  0  -0.016085  0.080904  0  4.002084  0
C  C138  1  0.47573014  0.16974079  0.37751052  1  -0.066075  0  -0.016619  0.079486  0  4.003378  0
C  C139  1  0.52427386  0.83026019  0.87751180  1  -0.066114  0  -0.016665  0.079343  0  4.003593  0
C  C140  1  0.39789763  0.92942955  0.65052356  1  -0.046601  0  -0.093906  -0.145134  0  4.015545  0
C  C141  1  0.60209732  0.07056952  0.15052380  1  -0.046608  0  -0.093946  -0.145093  0  4.015479  0
C  C142  1  0.46822202  0.07048521  0.34967397  1  -0.100414  0  -0.094688  -0.145745  0  4.017349  0
C  C143  1  0.53177877  0.92951325  0.84967717  1  -0.100445  0  -0.09471  -0.145651  0  4.017425  0
C  C144  1  0.35600748  0.97772054  0.70057703  1  -0.015026  0  -0.091944  -0.13296  0  4.014469  0
C  C145  1  0.64398814  0.02227776  0.20057777  1  -0.01506  0  -0.091871  -0.132935  0  4.014366  0
C  C146  1  0.37787494  0.02218043  0.29968870  1  0.024416  0  -0.091486  -0.13273  0  4.01486  0
C  C147  1  0.62212506  0.97782047  0.79968957  1  0.022994  0  -0.091482  -0.132683  0  4.01481  0
C  C148  1  0.22082515  0.92914102  0.72389627  1  -0.03699  0  -0.008449  0.056115  0  4.01691  0
C  C149  1  0.77917274  0.07085980  0.22389567  1  -0.036967  0  -0.008522  0.05602  0  4.016922  0
C  C150  1  0.29145643  0.07089160  0.27633264  1  -0.153133  0  -0.00824  0.056792  0  4.017377  0
C  C151  1  0.70854256  0.92910927  0.77633357  1  -0.151674  0  -0.008212  0.056833  0  4.017351  0
C  C152  1  0.12907933  0.83020115  0.69527039  1  -0.174587  0  -0.086546  -0.119949  0  3.969513  0
C  C153  1  0.87091763  0.16979798  0.19526890  1  -0.174411  0  -0.086532  -0.119936  0  3.969526  0
C  C154  1  0.29888174  0.16999653  0.30487307  1  -0.052673  0  -0.086431  -0.120279  0  3.969573  0
C  C155  1  0.70112098  0.83000604  0.80487209  1  -0.052729  0  -0.086444  -0.120322  0  3.96934  0
C  C156  1  0.17089948  0.78112691  0.64525892  1  0.003297  0  -0.087883  -0.126831  0  3.947713  0
C  C157  1  0.82909743  0.21887050  0.14525692  1  0.003315  0  -0.087835  -0.126765  0  3.947778  0
C  C158  1  0.38997950  0.21909782  0.35478437  1  -0.019753  0  -0.087477  -0.125788  0  3.946882  0
C  C159  1  0.61002359  0.78090147  0.85478571  1  -0.019696  0  -0.087424  -0.125632  0  3.946706  0
C  C160  1  0.99894655  0.28939406  0.93807024  1  0.932304  0  0.143969  0.096663  0  3.881323  0
C  C161  1  0.00105441  0.71060615  0.43806720  1  0.932314  0  0.143838  0.096364  0  3.881552  0
C  C162  1  0.70987622  0.71069976  0.06200112  1  0.975569  0  0.144727  0.097367  0  3.879923  0
C  C163  1  0.29012396  0.28930089  0.56200320  1  0.975356  0  0.144735  0.097257  0  3.879923  0
C  C164  1  0.78969164  0.19649645  0.90416544  1  0.40941  0  -0.007911  -0.043061  0  4.034792  0
C  C165  1  0.21031974  0.80350039  0.40416158  1  0.409028  0  -0.008062  -0.043299  0  4.03441  0
C  C166  1  0.59313520  0.80333450  0.09587861  1  0.418462  0  -0.007566  -0.044298  0  4.035654  0
C  C167  1  0.40686748  0.19666535  0.59588029  1  0.418466  0  -0.007556  -0.04419  0  4.035568  0
C  C168  1  0.84989903  0.12190396  0.90818403  1  0.32744  0  -0.007416  -0.120633  0  3.940633  0
C  C169  1  0.15010287  0.87810205  0.40818252  1  0.327229  0  -0.00731  -0.120565  0  3.940418  0
C  C170  1  0.72791069  0.87806695  0.09196746  1  0.337071  0  -0.007522  -0.120034  0  3.941035  0
C  C171  1  0.27208876  0.12193207  0.59196904  1  0.337066  0  -0.007559  -0.120169  0  3.940967  0
C  C172  1  0.08739398  0.13967074  0.94151919  1  0.27959  0  -0.041598  -0.10403  0  3.897601  0
C  C173  1  0.91261199  0.86033197  0.44151773  1  0.280075  0  -0.041588  -0.10401  0  3.897601  0
C  C174  1  0.94787034  0.86062139  0.05864213  1  0.280932  0  -0.041375  -0.103711  0  3.896347  0
C  C175  1  0.05212942  0.13937843  0.55864309  1  0.281363  0  -0.041446  -0.103818  0  3.896532  0
C  C176  1  0.11697776  0.08430221  0.88393203  1  -0.013748  0  -0.01932  0.079309  0  3.992751  0
C  C177  1  0.88302615  0.91570044  0.38393055  1  -0.013902  0  -0.01934  0.079268  0  3.992821  0
C  C178  1  0.03276631  0.91595212  0.11624617  1  0.044267  0  -0.019181  0.078972  0  3.993355  0
C  C179  1  0.96723405  0.08404859  0.61624681  1  0.04433  0  -0.01914  0.078955  0  3.993461  0
C  C180  1  0.20551051  0.14882235  0.83625174  1  -0.05025  0  -0.090961  -0.119931  0  3.971157  0
C  C181  1  0.79449430  0.85117858  0.33625067  1  -0.050037  0  -0.090831  -0.119798  0  3.97117  0
C  C182  1  0.05666203  0.85134481  0.16391266  1  -0.026489  0  -0.090817  -0.118962  0  3.969855  0
C  C183  1  0.94333838  0.14865761  0.66391328  1  -0.026524  0  -0.090802  -0.118919  0  3.96978  0
C  C184  1  0.23580219  0.09846294  0.78363661  1  -0.024072  0  -0.089586  -0.118261  0  3.968899  0
C  C185  1  0.76419870  0.90153794  0.28363505  1  -0.024175  0  -0.089611  -0.118302  0  3.968923  0
C  C186  1  0.13719463  0.90163548  0.21656886  1  -0.019787  0  -0.08963  -0.118513  0  3.968519  0
C  C187  1  0.86280282  0.09836450  0.71656942  1  -0.019831  0  -0.089639  -0.118531  0  3.968523  0
C  C188  1  0.17965460  0.98192257  0.77740425  1  -0.033485  0  -0.008728  0.063247  0  4.005262  0
C  C189  1  0.82034304  0.01807748  0.27740368  1  -0.033196  0  -0.008761  0.063263  0  4.00522  0
C  C190  1  0.19755405  0.01816972  0.22282461  1  -0.023928  0  -0.008878  0.062645  0  4.007296  0
C  C191  1  0.80244518  0.98183193  0.72282466  1  -0.023889  0  -0.00891  0.062567  0  4.007466  0
C  C192  1  0.08800364  0.91765902  0.82448039  1  -0.056098  0  -0.091919  -0.125931  0  3.991505  0
C  C193  1  0.91199540  0.08234357  0.32447893  1  -0.056425  0  -0.091858  -0.125901  0  3.991446  0
C  C194  1  0.17034318  0.08252340  0.17574366  1  -0.054357  0  -0.092047  -0.125615  0  3.991593  0
C  C195  1  0.82965549  0.91747737  0.67574420  1  -0.054334  0  -0.092018  -0.125578  0  3.991637  0
C  C196  1  0.05711401  0.96843132  0.87695760  1  0.022216  0  -0.096188  -0.138225  0  4.013102  0
C  C197  1  0.94288582  0.03156882  0.37695711  1  0.022216  0  -0.096218  -0.138273  0  4.013169  0
C  C198  1  0.08879695  0.03182162  0.12323444  1  -0.052039  0  -0.096584  -0.138525  0  4.014321  0
C  C199  1  0.91120249  0.96817910  0.62323551  1  -0.052041  0  -0.096584  -0.138473  0  4.014402  0
N  N200  1  0.52671590  0.59291704  0.60032554  1  -1.224906  0  -0.365594  -0.300594  0  3.555397  0
N  N201  1  0.47328472  0.40708615  0.10032616  1  -1.224928  0  -0.365581  -0.300538  0  3.555236  0
N  N202  1  0.93395574  0.40728787  0.39956917  1  -1.234365  0  -0.364832  -0.299231  0  3.555301  0
N  N203  1  0.06604551  0.59271313  0.89956967  1  -1.234273  0  -0.364858  -0.299228  0  3.555245  0
N  N204  1  0.42567344  0.70949858  0.59785308  1  -1.215236  0  -0.238654  0.046375  0  3.734929  0
N  N205  1  0.57432738  0.29050127  0.09785234  1  -1.215212  0  -0.238662  0.046414  0  3.734892  0
N  N206  1  0.71637207  0.29070845  0.40211453  1  -1.218849  0  -0.238453  0.047892  0  3.733879  0
N  N207  1  0.28363117  0.70929089  0.90211613  1  -1.218535  0  -0.238429  0.047813  0  3.733899  0
N  N208  1  0.88365459  0.30015650  0.92281527  1  -1.229072  0  -0.36525  -0.301349  0  3.571566  0
N  N209  1  0.11634278  0.69984037  0.42281326  1  -1.229167  0  -0.36506  -0.301052  0  3.571374  0
N  N210  1  0.58372122  0.69975826  0.07717489  1  -1.227255  0  -0.36532  -0.301511  0  3.571616  0
N  N211  1  0.41627766  0.30024157  0.57717657  1  -1.2273  0  -0.365343  -0.301509  0  3.571583  0
N  N212  1  0.98216769  0.18237653  0.92949813  1  -1.216279  0  -0.240888  0.050939  0  3.761029  0
N  N213  1  0.01783335  0.81762201  0.42949606  1  -1.216143  0  -0.240905  0.05109  0  3.761128  0
N  N214  1  0.79992404  0.81773865  0.07065533  1  -1.228692  0  -0.241776  0.050556  0  3.760842  0
N  N215  1  0.20007482  0.18226118  0.57065640  1  -1.228666  0  -0.241735  0.050655  0  3.760822  0
O  O216  1  0.69628497  0.54904832  0.47022845  1  -1.169388  0  -0.336884  -0.5642  0  2.224174  0
O  O217  1  0.30371287  0.45095109  0.97022910  1  -1.169445  0  -0.336972  -0.564299  0  2.224161  0
O  O218  1  0.14726632  0.45119934  0.52956631  1  -1.16691  0  -0.337135  -0.563939  0  2.224273  0
O  O219  1  0.85273293  0.54879961  0.02956672  1  -1.166891  0  -0.337184  -0.563991  0  2.224291  0
O  O220  1  0.47078921  0.44792563  0.45634971  1  -1.176516  0  -0.321799  -0.549949  0  2.16308  0
O  O221  1  0.52921192  0.55206544  0.95635052  1  -1.178823  0  -0.321768  -0.549946  0  2.162972  0
O  O222  1  0.02281927  0.55233307  0.54342203  1  -1.171053  0  -0.321367  -0.549019  0  2.163917  0
O  O223  1  0.97717804  0.44766756  0.04342347  1  -1.17102  0  -0.321347  -0.548997  0  2.164063  0
O  O224  1  0.38721723  0.63336573  0.41699617  1  -1.170676  0  -0.34243  -0.57348  0  2.157799  0
O  O225  1  0.61277721  0.36662530  0.91699609  1  -1.17064  0  -0.342412  -0.573494  0  2.15787  0
O  O226  1  0.75380893  0.36705446  0.58266698  1  -1.180069  0  -0.341997  -0.57357  0  2.159826  0
O  O227  1  0.24618955  0.63294455  0.08266792  1  -1.180424  0  -0.341947  -0.573506  0  2.15986  0
O  O228  1  0.25607341  0.49727526  0.35083876  1  -1.156814  0  -0.339675  -0.547393  0  2.135252  0
O  O229  1  0.74392217  0.50271653  0.85083924  1  -1.156581  0  -0.339652  -0.547454  0  2.135373  0
O  O230  1  0.75860358  0.50287934  0.64900664  1  -1.149584  0  -0.339864  -0.547905  0  2.134379  0
O  O231  1  0.24139376  0.49711890  0.14900758  1  -1.149599  0  -0.339881  -0.54791  0  2.134352  0
