# generated using pymatgen
data_CaH13C8NO8
_symmetry_space_group_name_H-M   'P 1'
_cell_length_a   14.20292058
_cell_length_b   13.65571094
_cell_length_c   13.65644524
_cell_angle_alpha   108.64272802
_cell_angle_beta   110.28766260
_cell_angle_gamma   110.28366459
_symmetry_Int_Tables_number   1
_chemical_formula_structural   CaH13C8NO8
_chemical_formula_sum   'Ca6 H78 C48 N6 O48'
_cell_volume   2018.15201056
_cell_formula_units_Z   6
loop_
 _symmetry_equiv_pos_site_id
 _symmetry_equiv_pos_as_xyz
  1  'x, y, z'
loop_
 _atom_site_type_symbol
 _atom_site_label
 _atom_site_symmetry_multiplicity
 _atom_site_fract_x
 _atom_site_fract_y
 _atom_site_fract_z
 _atom_site_occupancy
 _atom_site_pbe_bader_charge
 _atom_site_pbe_bader_spin_density
 _atom_site_pbe_cm5_charge
 _atom_site_pbe_ddec_charge
 _atom_site_pbe_ddec_spin_density
 _atom_site_pbe_ddec_sum_bond_order
 _atom_site_pbe_magmom
Ca  Ca0  1  0.48998788  0.15312370  0.68980029  1  1.641933  0  0.842852  1.388221  0  1.434065  0
Ca  Ca1  1  0.33682730  0.53667474  0.84686947  1  1.642635  0  0.842914  1.388552  0  1.433505  0
Ca  Ca2  1  0.80015039  0.31021644  0.46332393  1  1.641973  0  0.842709  1.388388  0  1.433609  0
Ca  Ca3  1  0.51001131  0.84687376  0.31019737  1  1.64198  0  0.842875  1.388206  0  1.434113  0
Ca  Ca4  1  0.66317429  0.46333173  0.15313568  1  1.642676  0  0.842873  1.388475  0  1.433579  0
Ca  Ca5  1  0.19984681  0.68978102  0.53667968  1  1.641957  0  0.842712  1.388422  0  1.433581  0
H  H6  1  0.91143950  0.35624779  0.78826813  1  0.115412  0  0.111851  0.112499  0  1.045998  0
H  H7  1  0.55516412  0.43197911  0.64373068  1  0.115482  0  0.111993  0.112561  0  1.046005  0
H  H8  1  0.12319762  0.21176491  0.56803859  1  0.104725  0  0.112008  0.112485  0  1.04576  0
H  H9  1  0.08855984  0.64375148  0.21173018  1  0.115427  0  0.11182  0.112465  0  1.045992  0
H  H10  1  0.44481713  0.56801024  0.35624891  1  0.115547  0  0.111955  0.112495  0  1.046049  0
H  H11  1  0.87680108  0.78821633  0.43195633  1  0.10474  0  0.112088  0.112684  0  1.04556  0
H  H12  1  0.84855135  0.25182912  0.03556817  1  0.085712  0  0.108521  0.116469  0  1.010885  0
H  H13  1  0.59670246  0.78366605  0.74816567  1  0.070446  0  0.108348  0.11625  0  1.01125  0
H  H14  1  0.81307409  0.96451710  0.21635321  1  0.088214  0  0.108552  0.116423  0  1.011274  0
H  H15  1  0.15145438  0.74816473  0.96443257  1  0.085918  0  0.10849  0.116405  0  1.010996  0
H  H16  1  0.40329487  0.21632962  0.25182565  1  0.070404  0  0.108401  0.116301  0  1.011199  0
H  H17  1  0.18695452  0.03550020  0.78366065  1  0.088718  0  0.108524  0.116382  0  1.010986  0
H  H18  1  0.20173394  0.44252759  0.11130762  1  0.09371  0  0.109941  0.12392  0  1.007698  0
H  H19  1  0.75925120  0.66881769  0.55745732  1  0.086792  0  0.109806  0.123818  0  1.007619  0
H  H20  1  0.09045779  0.88861753  0.33117550  1  0.085347  0  0.10987  0.123813  0  1.007465  0
H  H21  1  0.79825811  0.55748070  0.88869653  1  0.09374  0  0.109917  0.123924  0  1.007602  0
H  H22  1  0.24075975  0.33118969  0.44254895  1  0.086855  0  0.109824  0.123803  0  1.007795  0
H  H23  1  0.90955274  0.11137993  0.66882801  1  0.08536  0  0.109866  0.123789  0  1.007629  0
H  H24  1  0.15456698  0.35716340  0.23155159  1  0.442955  0  0.293846  0.279463  0  1.0  0
H  H25  1  0.79737192  0.87442189  0.64284410  1  0.442706  0  0.293732  0.279552  0  0.999766  0
H  H26  1  0.92302373  0.76847989  0.12561992  1  0.438332  0  0.29378  0.279471  0  1.000073  0
H  H27  1  0.84543128  0.64283947  0.76845053  1  0.442818  0  0.293821  0.279394  0  1.000051  0
H  H28  1  0.20262793  0.12558098  0.35716073  1  0.442686  0  0.293764  0.279579  0  0.999819  0
H  H29  1  0.07697805  0.23152028  0.87437289  1  0.438396  0  0.293824  0.279484  0  1.000124  0
H  H30  1  0.01598547  0.27422186  0.19529045  1  0.428385  0  0.315376  0.303626  0  0.915317  0
H  H31  1  0.74177257  0.92110179  0.72579450  1  0.427749  0  0.31531  0.303493  0  0.915661  0
H  H32  1  0.82073887  0.80470467  0.07889502  1  0.427807  0  0.315275  0.303515  0  0.915719  0
H  H33  1  0.98401973  0.72578011  0.80471067  1  0.428345  0  0.31536  0.303602  0  0.915381  0
H  H34  1  0.25822037  0.07889928  0.27420749  1  0.42794  0  0.315357  0.303582  0  0.915675  0
H  H35  1  0.17927589  0.19529279  0.92110326  1  0.427562  0  0.315306  0.303581  0  0.915585  0
H  H36  1  0.52309776  0.40950738  0.78372334  1  0.655786  0  0.300838  0.398936  0  0.938787  0
H  H37  1  0.11357805  0.37423698  0.59051699  1  0.655579  0  0.300901  0.39888  0  0.938853  0
H  H38  1  0.73933795  0.21625419  0.62578084  1  0.654542  0  0.300752  0.398776  0  0.938972  0
H  H39  1  0.47690526  0.59049278  0.21626328  1  0.655992  0  0.300786  0.398811  0  0.938926  0
H  H40  1  0.88642013  0.62576590  0.40948290  1  0.65538  0  0.300903  0.398819  0  0.93894  0
H  H41  1  0.26065365  0.78374598  0.37421675  1  0.654357  0  0.300811  0.398851  0  0.938867  0
H  H42  1  0.63817282  0.42063631  0.87853045  1  0.649234  0  0.302859  0.394705  0  0.946817  0
H  H43  1  0.21750460  0.45789449  0.57937086  1  0.648216  0  0.302819  0.394583  0  0.946965  0
H  H44  1  0.75959478  0.12142082  0.54208576  1  0.648916  0  0.302835  0.394722  0  0.946812  0
H  H45  1  0.36183494  0.57937288  0.12146661  1  0.649206  0  0.302838  0.394657  0  0.94688  0
H  H46  1  0.78249180  0.54210929  0.42062950  1  0.648178  0  0.30281  0.394514  0  0.947055  0
H  H47  1  0.24040129  0.87857484  0.45791101  1  0.648959  0  0.302838  0.39473  0  0.946784  0
H  H48  1  0.40003825  0.17587769  0.46762922  1  0.630002  0  0.290628  0.356894  0  0.994625  0
H  H49  1  0.22418102  0.29175686  0.82414351  1  0.617699  0  0.290643  0.357019  0  0.994411  0
H  H50  1  0.93240512  0.53237569  0.70824557  1  0.615297  0  0.290697  0.35697  0  0.994519  0
H  H51  1  0.59995877  0.82411977  0.53236993  1  0.630023  0  0.29065  0.356935  0  0.994572  0
H  H52  1  0.77582694  0.70824782  0.17585721  1  0.617429  0  0.290658  0.357035  0  0.994416  0
H  H53  1  0.06758983  0.46762177  0.29175731  1  0.614929  0  0.290687  0.356995  0  0.994478  0
H  H54  1  0.54088588  0.25698278  0.53561133  1  0.650841  0  0.300258  0.397437  0  0.941984  0
H  H55  1  0.28393088  0.27863871  0.74305811  1  0.64996  0  0.300382  0.397797  0  0.941537  0
H  H56  1  0.00530252  0.46440321  0.72136631  1  0.650503  0  0.300242  0.39752  0  0.941835  0
H  H57  1  0.45911190  0.74301468  0.46438806  1  0.650921  0  0.300351  0.397577  0  0.941836  0
H  H58  1  0.71606864  0.72136236  0.25694161  1  0.64993  0  0.300353  0.397735  0  0.941603  0
H  H59  1  0.99468766  0.53559245  0.27863149  1  0.650745  0  0.300249  0.397479  0  0.941891  0
H  H60  1  0.39442510  0.90126201  0.55501274  1  0.614289  0  0.301192  0.372916  0  0.974497  0
H  H61  1  0.49319451  0.65378481  0.09875171  1  0.626705  0  0.301288  0.372963  0  0.9744  0
H  H62  1  0.83941161  0.44497920  0.34625246  1  0.624877  0  0.301262  0.372946  0  0.974448  0
H  H63  1  0.60557282  0.09873545  0.44499036  1  0.614036  0  0.30121  0.372938  0  0.974485  0
H  H64  1  0.50680936  0.34621626  0.90124574  1  0.626626  0  0.301279  0.373023  0  0.974336  0
H  H65  1  0.16058353  0.55502187  0.65374877  1  0.624925  0  0.30128  0.372945  0  0.97443  0
H  H66  1  0.51575877  0.92974879  0.57267410  1  0.635237  0  0.301086  0.388985  0  0.941624  0
H  H67  1  0.58604625  0.64300016  0.07031384  1  0.630742  0  0.301117  0.388996  0  0.941747  0
H  H68  1  0.94311734  0.42734670  0.35710304  1  0.63234  0  0.301118  0.388862  0  0.941795  0
H  H69  1  0.48423994  0.07024778  0.42732236  1  0.635256  0  0.301092  0.388939  0  0.941682  0
H  H70  1  0.41395817  0.35700812  0.92968477  1  0.630732  0  0.301125  0.389018  0  0.941719  0
H  H71  1  0.05687653  0.57265167  0.64289907  1  0.632296  0  0.301139  0.388899  0  0.941746  0
H  H72  1  0.33208606  0.00722328  0.75549960  1  0.647097  0  0.300428  0.39576  0  0.938835  0
H  H73  1  0.32485983  0.74831508  0.99273808  1  0.639673  0  0.300492  0.395908  0  0.938615  0
H  H74  1  0.57659476  0.24448512  0.25169397  1  0.642  0  0.300521  0.39592  0  0.938613  0
H  H75  1  0.66791570  0.99277148  0.24450236  1  0.64691  0  0.300463  0.395753  0  0.938842  0
H  H76  1  0.67513870  0.25168238  0.00726156  1  0.63974  0  0.300497  0.395909  0  0.938611  0
H  H77  1  0.42340053  0.75551054  0.74830182  1  0.642038  0  0.300541  0.395891  0  0.93865  0
H  H78  1  0.44036999  0.12614355  0.87991292  1  0.625915  0  0.319921  0.398699  0  0.904141  0
H  H79  1  0.31432432  0.75387927  0.87387271  1  0.614073  0  0.319861  0.398658  0  0.90421  0
H  H80  1  0.56050133  0.12002261  0.24605816  1  0.622417  0  0.32  0.398715  0  0.904078  0
H  H81  1  0.55963975  0.87385211  0.12009266  1  0.625845  0  0.319943  0.3987  0  0.904135  0
H  H82  1  0.68567238  0.24612180  0.12613049  1  0.614055  0  0.31984  0.398651  0  0.904217  0
H  H83  1  0.43949909  0.87997756  0.75393788  1  0.622394  0  0.320005  0.398673  0  0.90413  0
C  C84  1  0.73732880  0.24596779  0.82890411  1  1.572673  0  0.208589  0.568493  0  4.220374  0
C  C85  1  0.49135604  0.58291665  0.75402419  1  1.570021  0  0.208671  0.568241  0  4.220396  0
C  C86  1  0.90842199  0.17102353  0.41703695  1  1.577261  0  0.208632  0.568556  0  4.22097  0
C  C87  1  0.26266437  0.75401254  0.17109313  1  1.573321  0  0.208476  0.568216  0  4.220813  0
C  C88  1  0.50863436  0.41708442  0.24596965  1  1.569115  0  0.208604  0.568593  0  4.220178  0
C  C89  1  0.09159082  0.82895951  0.58297487  1  1.57712  0  0.208626  0.568533  0  4.221249  0
C  C90  1  0.86692489  0.29823802  0.90428638  1  0.037753  0  -0.019466  -0.0198  0  4.015623  0
C  C91  1  0.56869502  0.60604863  0.70178188  1  0.054632  0  -0.019343  -0.019299  0  4.016491  0
C  C92  1  0.96263934  0.09573519  0.39395144  1  -0.020334  0  -0.019424  -0.019361  0  4.017817  0
C  C93  1  0.13307060  0.70174142  0.09570543  1  0.037715  0  -0.019383  -0.019597  0  4.015399  0
C  C94  1  0.43130281  0.39395875  0.29821064  1  0.054388  0  -0.019296  -0.019405  0  4.016494  0
C  C95  1  0.03736014  0.90425957  0.60604906  1  -0.020007  0  -0.019414  -0.019435  0  4.017231  0
C  C96  1  0.94444838  0.35323993  0.87132979  1  0.005605  0  -0.089489  -0.146926  0  3.95132  0
C  C97  1  0.59119836  0.51808532  0.64678308  1  -0.030657  0  -0.089346  -0.147277  0  3.950927  0
C  C98  1  0.07309898  0.12869478  0.48192040  1  -0.027238  0  -0.089408  -0.146928  0  3.9506  0
C  C99  1  0.05554769  0.64675573  0.12866698  1  0.005651  0  -0.089479  -0.146896  0  3.951409  0
C  C100  1  0.40879777  0.48191214  0.35321212  1  -0.029827  0  -0.089386  -0.147243  0  3.951141  0
C  C101  1  0.92690389  0.87131170  0.51806098  1  -0.027379  0  -0.089482  -0.147246  0  3.950425  0
C  C102  1  0.06504804  0.40545192  0.94642872  1  -0.076661  0  -0.021726  -0.033655  0  4.01864  0
C  C103  1  0.65956760  0.54096024  0.59452626  1  -0.049447  0  -0.021767  -0.033641  0  4.017201  0
C  C104  1  0.11861966  0.05359651  0.45902254  1  -0.019813  0  -0.021997  -0.034063  0  4.017217  0
C  C105  1  0.93494989  0.59455636  0.05357439  1  -0.076565  0  -0.021754  -0.033769  0  4.018605  0
C  C106  1  0.34041288  0.45903361  0.40545388  1  -0.049958  0  -0.021723  -0.033694  0  4.017146  0
C  C107  1  0.88138491  0.94640456  0.54099273  1  -0.020231  0  -0.021998  -0.033869  0  4.017491  0
C  C108  1  0.10761618  0.40099201  0.05318315  1  -0.055515  0  -0.092942  -0.206824  0  3.918019  0
C  C109  1  0.70662958  0.65219778  0.59898083  1  -0.065137  0  -0.092702  -0.206699  0  3.916526  0
C  C110  1  0.05445134  0.94677572  0.34782392  1  -0.025128  0  -0.09277  -0.206609  0  3.916582  0
C  C111  1  0.89237961  0.59899734  0.94680847  1  -0.055259  0  -0.092921  -0.206813  0  3.917835  0
C  C112  1  0.29337428  0.34780239  0.40102730  1  -0.065035  0  -0.092653  -0.206554  0  3.916671  0
C  C113  1  0.94554946  0.05322175  0.65217718  1  -0.02474  0  -0.092755  -0.206637  0  3.917012  0
C  C114  1  0.03023000  0.34369590  0.08500026  1  0.312053  0  0.085589  0.276023  0  4.103084  0
C  C115  1  0.68652831  0.74130230  0.65631857  1  0.355897  0  0.085701  0.276204  0  4.102792  0
C  C116  1  0.94526396  0.91505210  0.25873613  1  0.361506  0  0.085746  0.276457  0  4.102757  0
C  C117  1  0.96977108  0.65630968  0.91500295  1  0.311981  0  0.085537  0.275968  0  4.103241  0
C  C118  1  0.31347533  0.25870869  0.34368364  1  0.355843  0  0.085701  0.276294  0  4.102765  0
C  C119  1  0.05473690  0.08496700  0.74126572  1  0.360924  0  0.08568  0.27646  0  4.102652  0
C  C120  1  0.90992841  0.29355637  0.01043488  1  -0.072943  0  -0.094088  -0.210147  0  3.948241  0
C  C121  1  0.61638326  0.71683182  0.70644944  1  -0.084817  0  -0.094035  -0.21016  0  3.9498  0
C  C122  1  0.89958326  0.98965451  0.28318344  1  -0.09849  0  -0.094349  -0.210547  0  3.950074  0
C  C123  1  0.09007208  0.70645822  0.98957485  1  -0.073392  0  -0.094115  -0.210167  0  3.948192  0
C  C124  1  0.38361267  0.28316745  0.29353751  1  -0.084974  0  -0.094074  -0.210195  0  3.949329  0
C  C125  1  0.10042392  0.01035828  0.71683004  1  -0.098916  0  -0.094178  -0.210304  0  3.949116  0
C  C126  1  0.14993520  0.46089125  0.91078655  1  1.58184  0  0.210456  0.566609  0  4.240215  0
C  C127  1  0.68901610  0.44986896  0.53908054  1  1.574149  0  0.210379  0.566117  0  4.240351  0
C  C128  1  0.23918885  0.08922761  0.55013485  1  1.583721  0  0.210441  0.566144  0  4.240027  0
C  C129  1  0.85005900  0.53909901  0.08920999  1  1.581715  0  0.210453  0.56649  0  4.240363  0
C  C130  1  0.31097711  0.55013121  0.46092050  1  1.574477  0  0.21025  0.565943  0  4.240597  0
C  C131  1  0.76082220  0.91077706  0.44988813  1  1.583784  0  0.21036  0.566022  0  4.239957  0
N  N132  1  0.07238198  0.34397223  0.19444040  1  -1.21725  0  -0.583611  -0.594569  0  3.346954  0
N  N133  1  0.72838376  0.85047465  0.65605226  1  -1.215664  0  -0.58347  -0.594653  0  3.346969  0
N  N134  1  0.87797420  0.80561899  0.14956186  1  -1.214972  0  -0.583446  -0.594604  0  3.347477  0
N  N135  1  0.92761721  0.65603245  0.80556336  1  -1.217046  0  -0.583518  -0.59441  0  3.347066  0
N  N136  1  0.27161399  0.14953183  0.34394945  1  -1.215638  0  -0.583536  -0.594817  0  3.347264  0
N  N137  1  0.12203525  0.19439109  0.85044851  1  -1.214797  0  -0.583545  -0.594741  0  3.347443  0
O  O138  1  0.69411215  0.23176901  0.72300747  1  -1.20183  0  -0.330893  -0.577181  0  2.204577  0
O  O139  1  0.46234887  0.49120911  0.76822806  1  -1.198273  0  -0.330847  -0.577168  0  2.204411  0
O  O140  1  0.97109433  0.27690718  0.50874180  1  -1.205896  0  -0.330945  -0.577364  0  2.204008  0
O  O141  1  0.30589764  0.76823747  0.27699885  1  -1.201925  0  -0.330873  -0.577069  0  2.204823  0
O  O142  1  0.53765939  0.50878745  0.23176635  1  -1.197605  0  -0.330829  -0.577262  0  2.204431  0
O  O143  1  0.02889829  0.72308488  0.49124897  1  -1.205944  0  -0.33089  -0.577271  0  2.204252  0
O  O144  1  0.67295475  0.21749508  0.87275570  1  -1.209562  0  -0.338843  -0.595625  0  2.205895  0
O  O145  1  0.45542449  0.65519688  0.78252814  1  -1.210235  0  -0.338987  -0.595558  0  2.206043  0
O  O146  1  0.80021852  0.12730397  0.34481817  1  -1.21178  0  -0.33903  -0.595682  0  2.206259  0
O  O147  1  0.32703810  0.78249967  0.12724559  1  -1.20993  0  -0.338794  -0.595546  0  2.206026  0
O  O148  1  0.54456746  0.34480329  0.21747835  1  -1.210081  0  -0.339007  -0.595793  0  2.205929  0
O  O149  1  0.19980113  0.87269981  0.65518968  1  -1.211522  0  -0.339068  -0.595754  0  2.206525  0
O  O150  1  0.25856208  0.50156217  0.97924841  1  -1.215414  0  -0.346621  -0.611041  0  2.258365  0
O  O151  1  0.75698149  0.47772410  0.49844326  1  -1.2154  0  -0.346468  -0.61078  0  2.258745  0
O  O152  1  0.27927198  0.02071378  0.52225973  1  -1.216576  0  -0.346295  -0.61061  0  2.259334  0
O  O153  1  0.74143469  0.49842988  0.02073491  1  -1.215506  0  -0.346575  -0.610959  0  2.258557  0
O  O154  1  0.24302804  0.52227336  0.50157238  1  -1.215541  0  -0.346391  -0.610715  0  2.258843  0
O  O155  1  0.72071949  0.97927828  0.47773947  1  -1.216408  0  -0.34633  -0.610612  0  2.25902  0
O  O156  1  0.11290314  0.46084991  0.81196421  1  -1.20033  0  -0.308929  -0.568403  0  2.218535  0
O  O157  1  0.65201981  0.35108614  0.53913195  1  -1.199797  0  -0.308857  -0.568072  0  2.218182  0
O  O158  1  0.30093645  0.18804257  0.64895080  1  -1.198751  0  -0.308961  -0.568196  0  2.217963  0
O  O159  1  0.88708902  0.53914215  0.18803374  1  -1.200425  0  -0.308901  -0.568289  0  2.218607  0
O  O160  1  0.34798001  0.64891673  0.46087214  1  -1.20012  0  -0.30882  -0.568027  0  2.218309  0
O  O161  1  0.69906823  0.81197563  0.35106517  1  -1.198747  0  -0.308935  -0.568184  0  2.217887  0
O  O162  1  0.55863291  0.36187257  0.80500340  1  -1.312401  0  -0.61946  -0.833545  0  2.078151  0
O  O163  1  0.19676090  0.44311977  0.63814017  1  -1.311296  0  -0.619486  -0.833277  0  2.078229  0
O  O164  1  0.75361307  0.19497213  0.55688154  1  -1.310012  0  -0.619142  -0.833238  0  2.078033  0
O  O165  1  0.44137322  0.63813211  0.19498868  1  -1.312688  0  -0.619346  -0.833311  0  2.078483  0
O  O166  1  0.80323688  0.55688220  0.36186076  1  -1.31106  0  -0.619464  -0.833101  0  2.078349  0
O  O167  1  0.24637951  0.80502083  0.44311612  1  -1.309844  0  -0.619231  -0.833358  0  2.077946  0
O  O168  1  0.47441274  0.18717136  0.52495741  1  -1.30222  0  -0.615561  -0.809922  0  2.106901  0
O  O169  1  0.28729480  0.33778638  0.81288816  1  -1.289579  0  -0.61555  -0.810216  0  2.106553  0
O  O170  1  0.94945907  0.47505840  0.66222078  1  -1.28803  0  -0.615631  -0.810048  0  2.106659  0
O  O171  1  0.52558441  0.81282791  0.47504166  1  -1.302319  0  -0.615651  -0.810107  0  2.106744  0
O  O172  1  0.71271558  0.66222280  0.18711928  1  -1.289351  0  -0.615525  -0.810173  0  2.106537  0
O  O173  1  0.05053157  0.52493816  0.33777747  1  -1.287863  0  -0.615623  -0.810055  0  2.106694  0
O  O174  1  0.47896972  0.96382610  0.61194842  1  -1.288091  0  -0.632826  -0.823174  0  1.998197  0
O  O175  1  0.51517085  0.64819094  0.03619907  1  -1.295688  0  -0.632904  -0.823302  0  1.997712  0
O  O176  1  0.86704730  0.38807407  0.35190851  1  -1.294908  0  -0.632947  -0.823058  0  1.998308  0
O  O177  1  0.52102532  0.03617047  0.38804906  1  -1.28786  0  -0.632855  -0.823138  0  1.998186  0
O  O178  1  0.48483131  0.35180832  0.96379576  1  -1.29559  0  -0.632887  -0.82338  0  1.997605  0
O  O179  1  0.13294403  0.61192249  0.64808850  1  -1.294848  0  -0.632988  -0.823086  0  1.998199  0
O  O180  1  0.41603041  0.07060457  0.79818904  1  -1.276548  0  -0.61028  -0.80924  0  1.994355  0
O  O181  1  0.34535907  0.72753775  0.92933252  1  -1.255842  0  -0.610233  -0.809253  0  1.99431  0
O  O182  1  0.61787034  0.20183013  0.27241143  1  -1.266899  0  -0.609997  -0.809181  0  1.994441  0
O  O183  1  0.58396911  0.92939650  0.20181067  1  -1.276321  0  -0.610338  -0.80926  0  1.994417  0
O  O184  1  0.65463753  0.27245881  0.07066693  1  -1.255826  0  -0.61021  -0.809244  0  1.994347  0
O  O185  1  0.38212949  0.79817184  0.72758502  1  -1.266861  0  -0.610029  -0.809119  0  1.994483  0
