# generated using pymatgen
data_NaH10C13BrN2O3
_symmetry_space_group_name_H-M   'P 1'
_cell_length_a   6.77718414
_cell_length_b   13.24826463
_cell_length_c   18.26573338
_cell_angle_alpha   89.99657795
_cell_angle_beta   89.99907972
_cell_angle_gamma   84.45987641
_symmetry_Int_Tables_number   1
_chemical_formula_structural   NaH10C13BrN2O3
_chemical_formula_sum   'Na4 H40 C52 Br4 N8 O12'
_cell_volume   1632.34509911
_cell_formula_units_Z   4
loop_
 _symmetry_equiv_pos_site_id
 _symmetry_equiv_pos_as_xyz
  1  'x, y, z'
loop_
 _atom_site_type_symbol
 _atom_site_label
 _atom_site_symmetry_multiplicity
 _atom_site_fract_x
 _atom_site_fract_y
 _atom_site_fract_z
 _atom_site_occupancy
 _atom_site_hle17_bader_spin_density
 _atom_site_hle17_ddec_charge
 _atom_site_hle17_ddec_spin_density
 _atom_site_hle17_ddec_sum_bond_order
 _atom_site_hle17_magmom
 _atom_site_hse06_10hf_bader_spin_density
 _atom_site_hse06_10hf_ddec_charge
 _atom_site_hse06_10hf_ddec_spin_density
 _atom_site_hse06_10hf_ddec_sum_bond_order
 _atom_site_hse06_10hf_magmom
 _atom_site_hse06_bader_spin_density
 _atom_site_hse06_ddec_charge
 _atom_site_hse06_ddec_spin_density
 _atom_site_hse06_ddec_sum_bond_order
 _atom_site_hse06_magmom
 _atom_site_pbe_bader_spin_density
 _atom_site_pbe_cm5_charge
 _atom_site_pbe_ddec_charge
 _atom_site_pbe_ddec_spin_density
 _atom_site_pbe_ddec_sum_bond_order
 _atom_site_pbe_magmom
Na  Na0  1  0.88203434  0.51507713  0.08405231  1  0  0.884767  0  0.409043  0  0  0.831129  0  0.571214  0  0  0.843325  0  0.548605  0  0  0.702894  0.822376  0  0.587175  0
Na  Na1  1  0.61799480  0.48489400  0.58405516  1  0  0.884765  0  0.409222  0  0  0.831154  0  0.571411  0  0  0.843327  0  0.548808  0  0  0.703061  0.822403  0  0.587375  0
Na  Na2  1  0.11802947  0.48495006  0.91594731  1  0  0.884833  0  0.409059  0  0  0.831204  0  0.571215  0  0  0.843397  0  0.548608  0  0  0.702926  0.822456  0  0.587173  0
Na  Na3  1  0.38196040  0.51508826  0.41594610  1  0  0.884808  0  0.409137  0  0  0.831165  0  0.571365  0  0  0.843353  0  0.548748  0  0  0.703011  0.822413  0  0.587324  0
H  H4  1  0.83940598  0.72247563  0.02803268  1  0  0.408313  0  0.847527  0  0  0.394631  0  0.901742  0  0  0.402239  0  0.891313  0  0  0.308435  0.389261  0  0.908149  0
H  H5  1  0.66064607  0.27751482  0.52803111  1  0  0.40822  0  0.847355  0  0  0.394533  0  0.901571  0  0  0.402141  0  0.891372  0  0  0.308427  0.389167  0  0.907977  0
H  H6  1  0.16060061  0.27757078  0.97199048  1  0  0.408447  0  0.847322  0  0  0.394771  0  0.901482  0  0  0.402382  0  0.891103  0  0  0.30847  0.389404  0  0.907891  0
H  H7  1  0.33930838  0.72248711  0.47195756  1  0  0.408627  0  0.847219  0  0  0.394859  0  0.901491  0  0  0.402487  0  0.890975  0  0  0.308503  0.38948  0  0.90792  0
H  H8  1  0.62659496  0.69200629  0.04715386  1  0  0.384363  0  0.944579  0  0  0.344337  0  1.02609  0  0  0.355116  0  1.010749  0  0  0.267867  0.336789  0  1.036801  0
H  H9  1  0.87344271  0.30798237  0.54716079  1  0  0.38449  0  0.944363  0  0  0.344525  0  1.025782  0  0  0.355303  0  1.010442  0  0  0.267868  0.336978  0  1.036493  0
H  H10  1  0.37342725  0.30802034  0.95285944  1  0  0.384463  0  0.944441  0  0  0.344445  0  1.025928  0  0  0.355226  0  1.010583  0  0  0.267906  0.336896  0  1.036641  0
H  H11  1  0.12652228  0.69198345  0.45284376  1  0  0.384582  0  0.944294  0  0  0.344545  0  1.025831  0  0  0.355323  0  1.010489  0  0  0.267923  0.336996  0  1.036546  0
H  H12  1  0.66674546  0.28489451  0.69873466  1  0  0.092661  0  0.946493  0  0  0.095274  0  1.018635  0  0  0.099596  0  1.014268  0  0  0.110103  0.09216  0  1.021769  0
H  H13  1  0.83319811  0.71508547  0.19872304  1  0  0.092658  0  0.946516  0  0  0.095284  0  1.018604  0  0  0.099596  0  1.014231  0  0  0.110104  0.092181  0  1.021728  0
H  H14  1  0.33314505  0.71510591  0.30127153  1  0  0.092761  0  0.946271  0  0  0.095293  0  1.018483  0  0  0.09962  0  1.014103  0  0  0.110087  0.092186  0  1.021612  0
H  H15  1  0.16674567  0.28494955  0.80130396  1  0  0.09272  0  0.946581  0  0  0.095335  0  1.01868  0  0  0.099666  0  1.014298  0  0  0.110158  0.09223  0  1.021807  0
H  H16  1  0.56626169  0.59328070  0.73852702  1  0  0.075402  0  0.936607  0  0  0.085517  0  0.998402  0  0  0.088589  0  0.995258  0  0  0.119107  0.083275  0  1.000736  0
H  H17  1  0.93362651  0.40669792  0.23852672  1  0  0.075119  0  0.936918  0  0  0.085264  0  0.998661  0  0  0.088334  0  0.995514  0  0  0.118872  0.083017  0  1.000997  0
H  H18  1  0.43379045  0.40671169  0.26148191  1  0  0.075389  0  0.936402  0  0  0.085587  0  0.998137  0  0  0.088628  0  0.995022  0  0  0.119137  0.083342  0  1.00047  0
H  H19  1  0.06643431  0.59332869  0.76144608  1  0  0.07529  0  0.936606  0  0  0.085303  0  0.998494  0  0  0.088369  0  0.995355  0  0  0.118951  0.083063  0  1.000819  0
H  H20  1  0.61061039  0.56700393  0.87367449  1  0  0.111623  0  0.960479  0  0  0.119649  0  1.022821  0  0  0.122684  0  1.022087  0  0  0.115504  0.117428  0  1.023539  0
H  H21  1  0.88928450  0.43297236  0.37367444  1  0  0.111534  0  0.960401  0  0  0.119605  0  1.022723  0  0  0.122621  0  1.021993  0  0  0.115524  0.117389  0  1.02344  0
H  H22  1  0.38951963  0.43300576  0.12632897  1  0  0.1116  0  0.960949  0  0  0.11969  0  1.023144  0  0  0.122725  0  1.022417  0  0  0.115575  0.117475  0  1.023842  0
H  H23  1  0.11076951  0.56699049  0.62630274  1  0  0.11156  0  0.960409  0  0  0.119632  0  1.0227  0  0  0.122655  0  1.02196  0  0  0.11553  0.117412  0  1.023418  0
H  H24  1  0.60775234  0.27863123  0.19920370  1  0  0.090575  0  0.965632  0  0  0.098476  0  1.033321  0  0  0.101717  0  1.031114  0  0  0.101907  0.096147  0  1.034916  0
H  H25  1  0.89214541  0.72131443  0.69919401  1  0  0.090825  0  0.965513  0  0  0.098736  0  1.03319  0  0  0.101984  0  1.03096  0  0  0.101986  0.096407  0  1.034787  0
H  H26  1  0.39233088  0.72139859  0.80079756  1  0  0.09073  0  0.965783  0  0  0.098606  0  1.033458  0  0  0.101851  0  1.031248  0  0  0.102002  0.096282  0  1.035046  0
H  H27  1  0.10780543  0.27867035  0.30079850  1  0  0.090833  0  0.965776  0  0  0.098729  0  1.0334  0  0  0.101991  0  1.031174  0  0  0.102021  0.096398  0  1.035011  0
H  H28  1  0.41948389  0.14947802  0.26105555  1  0  0.092218  0  0.947362  0  0  0.104069  0  1.00278  0  0  0.106805  0  1.002464  0  0  0.101988  0.10211  0  1.003091  0
H  H29  1  0.08043647  0.85044520  0.76105672  1  0  0.092141  0  0.947723  0  0  0.103961  0  1.003129  0  0  0.106693  0  1.002819  0  0  0.102113  0.102008  0  1.003444  0
H  H30  1  0.58056566  0.85056511  0.73895502  1  0  0.092198  0  0.947449  0  0  0.104004  0  1.00288  0  0  0.106727  0  1.002582  0  0  0.102047  0.102055  0  1.003194  0
H  H31  1  0.91959813  0.14951501  0.23893086  1  0  0.092087  0  0.947709  0  0  0.103962  0  1.003079  0  0  0.106695  0  1.002767  0  0  0.101988  0.102011  0  1.003393  0
H  H32  1  0.26346235  0.02225861  0.18660161  1  0  0.078746  0  0.972527  0  0  0.090054  0  1.034764  0  0  0.092965  0  1.032765  0  0  0.089986  0.087926  0  1.036262  0
H  H33  1  0.23645329  0.97767381  0.68659903  1  0  0.078977  0  0.972569  0  0  0.090273  0  1.034776  0  0  0.093184  0  1.032781  0  0  0.090193  0.088112  0  1.036307  0
H  H34  1  0.73649900  0.97780935  0.81341225  1  0  0.078828  0  0.972643  0  0  0.090174  0  1.034833  0  0  0.093082  0  1.032843  0  0  0.090088  0.088049  0  1.036323  0
H  H35  1  0.76359522  0.02226067  0.31337048  1  0  0.078666  0  0.972249  0  0  0.090008  0  1.034494  0  0  0.092917  0  1.032505  0  0  0.090041  0.087928  0  1.035938  0
H  H36  1  0.29945059  0.02196823  0.05031283  1  0  0.087108  0  0.949351  0  0  0.099397  0  1.004347  0  0  0.102228  0  1.003698  0  0  0.096617  0.097355  0  1.004985  0
H  H37  1  0.20043731  0.97800105  0.55031238  1  0  0.08708  0  0.949519  0  0  0.099268  0  1.00458  0  0  0.1021  0  1.00393  0  0  0.096603  0.097214  0  1.005234  0
H  H38  1  0.70050088  0.97807389  0.94969828  1  0  0.087515  0  0.949009  0  0  0.099644  0  1.004144  0  0  0.102478  0  1.003486  0  0  0.096695  0.097602  0  1.004784  0
H  H39  1  0.79955095  0.02195133  0.44966042  1  0  0.087201  0  0.949435  0  0  0.099379  0  1.004503  0  0  0.102208  0  1.003855  0  0  0.096614  0.097338  0  1.00514  0
H  H40  1  0.48154436  0.15307901  0.98949333  1  0  0.088921  0  0.980933  0  0  0.093668  0  1.053142  0  0  0.097409  0  1.05027  0  0  0.097604  0.090981  0  1.055233  0
H  H41  1  0.01834267  0.84689384  0.48949246  1  0  0.089007  0  0.980976  0  0  0.093739  0  1.053187  0  0  0.09748  0  1.050317  0  0  0.097651  0.091053  0  1.055278  0
H  H42  1  0.51847032  0.84694504  0.01051286  1  0  0.088985  0  0.981055  0  0  0.093768  0  1.053193  0  0  0.097509  0  1.050322  0  0  0.097598  0.091081  0  1.055284  0
H  H43  1  0.98157915  0.15306925  0.51049238  1  0  0.088849  0  0.98094  0  0  0.093684  0  1.053092  0  0  0.097427  0  1.050218  0  0  0.097668  0.090998  0  1.055183  0
C  C44  1  0.66738544  0.32469202  0.81431938  1  0  0.034428  0  3.650183  0  0  0.046464  0  3.916367  0  0  0.046267  0  3.93832  0  0  -0.003837  0.046238  0  3.901709  0
C  C45  1  0.83260624  0.67529566  0.31431162  1  0  0.034991  0  3.649927  0  0  0.046815  0  3.916184  0  0  0.046642  0  3.938138  0  0  -0.003656  0.046594  0  3.901518  0
C  C46  1  0.33266557  0.67531026  0.18569447  1  0  0.03484  0  3.649793  0  0  0.046766  0  3.91605  0  0  0.046552  0  3.937982  0  0  -0.003624  0.046547  0  3.901386  0
C  C47  1  0.16734357  0.32470126  0.68570498  1  0  0.034807  0  3.650026  0  0  0.046841  0  3.916172  0  0  0.046631  0  3.938122  0  0  -0.003535  0.046615  0  3.901516  0
C  C48  1  0.64815251  0.34568159  0.73927240  1  0  0.073876  0  3.732218  0  0  0.041204  0  3.995659  0  0  0.044706  0  4.014468  0  0  0.039931  0.03896  0  3.983078  0
C  C49  1  0.85177027  0.65430778  0.23926170  1  0  0.073518  0  3.731473  0  0  0.040932  0  3.994894  0  0  0.044431  0  4.013732  0  0  0.039785  0.038626  0  3.982428  0
C  C50  1  0.35177984  0.65432541  0.26073817  1  0  0.073355  0  3.732857  0  0  0.040929  0  3.995975  0  0  0.044402  0  4.014864  0  0  0.039789  0.038648  0  3.983459  0
C  C51  1  0.14817428  0.34570756  0.76074887  1  0  0.073471  0  3.732067  0  0  0.040837  0  3.995499  0  0  0.044337  0  4.014304  0  0  0.039814  0.038527  0  3.983046  0
C  C52  1  0.59384840  0.51721593  0.76164325  1  0  0.113019  0  3.759404  0  0  0.082008  0  4.028675  0  0  0.087722  0  4.045019  0  0  0.042708  0.078228  0  4.017635  0
C  C53  1  0.90608807  0.48276528  0.26161996  1  0  0.112939  0  3.760087  0  0  0.081971  0  4.029287  0  0  0.087694  0  4.045603  0  0  0.042852  0.078199  0  4.01823  0
C  C54  1  0.40619830  0.48279038  0.23836677  1  0  0.113024  0  3.758305  0  0  0.081963  0  4.027604  0  0  0.087716  0  4.04394  0  0  0.042757  0.078184  0  4.016557  0
C  C55  1  0.09396165  0.51724236  0.73834846  1  0  0.113091  0  3.759606  0  0  0.082188  0  4.0288  0  0  0.087909  0  4.045135  0  0  0.042861  0.078414  0  4.017748  0
C  C56  1  0.61621246  0.50269592  0.83641849  1  0  -0.124023  0  3.718526  0  0  -0.146097  0  3.974219  0  0  -0.150436  0  3.993249  0  0  -0.070472  -0.143427  0  3.961737  0
C  C57  1  0.88371229  0.49727251  0.33640346  1  0  -0.123662  0  3.717975  0  0  -0.145907  0  3.973655  0  0  -0.1502  0  3.992694  0  0  -0.070346  -0.143245  0  3.961166  0
C  C58  1  0.38384034  0.49731456  0.16358278  1  0  -0.124158  0  3.719063  0  0  -0.146262  0  3.974743  0  0  -0.150608  0  3.993733  0  0  -0.070595  -0.143587  0  3.962265  0
C  C59  1  0.11630774  0.50269536  0.66356989  1  0  -0.123949  0  3.71879  0  0  -0.146004  0  3.97443  0  0  -0.150316  0  3.993393  0  0  -0.070459  -0.143339  0  3.961946  0
C  C60  1  0.65359380  0.40430430  0.86496293  1  0  -0.032779  0  3.688098  0  0  -0.024547  0  3.924839  0  0  -0.025045  0  3.942584  0  0  0.007103  -0.024237  0  3.913047  0
C  C61  1  0.84639441  0.59567153  0.36495391  1  0  -0.033242  0  3.688049  0  0  -0.024703  0  3.924499  0  0  -0.025274  0  3.94233  0  0  0.00703  -0.024384  0  3.912695  0
C  C62  1  0.34646750  0.59569510  0.13504491  1  0  -0.032575  0  3.688035  0  0  -0.024405  0  3.924892  0  0  -0.024848  0  3.942565  0  0  0.007241  -0.024093  0  3.913094  0
C  C63  1  0.15360789  0.40429889  0.63504736  1  0  -0.032833  0  3.689187  0  0  -0.024695  0  3.925999  0  0  -0.025149  0  3.943684  0  0  0.00714  -0.024377  0  3.914206  0
C  C64  1  0.69888591  0.39666983  0.94594780  1  0  0.586389  0  3.831767  0  0  0.550042  0  4.108475  0  0  0.579799  0  4.106547  0  0  0.24241  0.530053  0  4.109121  0
C  C65  1  0.80110188  0.60331333  0.44594830  1  0  0.587241  0  3.830808  0  0  0.550753  0  4.10757  0  0  0.580527  0  4.105637  0  0  0.242776  0.530763  0  4.108227  0
C  C66  1  0.30117447  0.60334473  0.05405730  1  0  0.586283  0  3.831761  0  0  0.549956  0  4.108485  0  0  0.579701  0  4.106555  0  0  0.242173  0.529965  0  4.109133  0
C  C67  1  0.19888186  0.39663705  0.55406830  1  0  0.586306  0  3.831399  0  0  0.549988  0  4.108128  0  0  0.579731  0  4.106199  0  0  0.242163  0.529997  0  4.108778  0
C  C68  1  0.65831528  0.30804904  0.05670018  1  0  0.569792  0  3.821468  0  0  0.534314  0  4.100711  0  0  0.564194  0  4.099102  0  0  0.233802  0.514242  0  4.101254  0
C  C69  1  0.84161886  0.69190440  0.55667913  1  0  0.569397  0  3.82291  0  0  0.53352  0  4.102573  0  0  0.563378  0  4.100991  0  0  0.233474  0.513451  0  4.103096  0
C  C70  1  0.34173332  0.69196848  0.94330711  1  0  0.569675  0  3.821008  0  0  0.53437  0  4.100038  0  0  0.564238  0  4.098421  0  0  0.233712  0.514295  0  4.100582  0
C  C71  1  0.15831652  0.30806393  0.44330899  1  0  0.56944  0  3.82169  0  0  0.533992  0  4.100919  0  0  0.563871  0  4.099314  0  0  0.233753  0.513919  0  4.101452  0
C  C72  1  0.55099647  0.22598240  0.09076096  1  0  -0.056535  0  3.752672  0  0  -0.03384  0  3.979202  0  0  -0.041009  0  4.003116  0  0  -0.019576  -0.029273  0  3.963092  0
C  C73  1  0.94884702  0.77398418  0.59074975  1  0  -0.056222  0  3.752935  0  0  -0.032853  0  3.978666  0  0  -0.039972  0  4.002527  0  0  -0.019121  -0.028287  0  3.962553  0
C  C74  1  0.44902609  0.77405402  0.90924413  1  0  -0.056255  0  3.752178  0  0  -0.0337  0  3.978729  0  0  -0.040817  0  4.002573  0  0  -0.019379  -0.029127  0  3.962614  0
C  C75  1  0.05104985  0.22598717  0.40923016  1  0  -0.056235  0  3.752604  0  0  -0.033476  0  3.979049  0  0  -0.04063  0  4.002947  0  0  -0.019484  -0.028906  0  3.962929  0
C  C76  1  0.53618311  0.22292005  0.16736798  1  0  -0.079447  0  3.748179  0  0  -0.102546  0  3.993408  0  0  -0.103149  0  4.015189  0  0  -0.084563  -0.101822  0  3.978495  0
C  C77  1  0.96367992  0.77703481  0.66735530  1  0  -0.080564  0  3.748843  0  0  -0.10389  0  3.994054  0  0  -0.104515  0  4.015852  0  0  -0.085166  -0.103166  0  3.979137  0
C  C78  1  0.46386168  0.77711506  0.83263711  1  0  -0.079555  0  3.748664  0  0  -0.102575  0  3.993838  0  0  -0.103197  0  4.015612  0  0  -0.084674  -0.101859  0  3.978935  0
C  C79  1  0.03627528  0.22294744  0.33262735  1  0  -0.080378  0  3.749011  0  0  -0.103514  0  3.994318  0  0  -0.104142  0  4.016133  0  0  -0.08505  -0.102791  0  3.979393  0
C  C80  1  0.43260505  0.15031437  0.20158451  1  0  -0.075494  0  3.776927  0  0  -0.085108  0  4.023031  0  0  -0.089235  0  4.046541  0  0  -0.092334  -0.08233  0  4.006898  0
C  C81  1  0.06731509  0.84960784  0.70158208  1  0  -0.074864  0  3.776616  0  0  -0.084446  0  4.022785  0  0  -0.088573  0  4.046308  0  0  -0.092084  -0.081676  0  4.006651  0
C  C82  1  0.56742487  0.84972010  0.79842168  1  0  -0.075283  0  3.777056  0  0  -0.084867  0  4.02318  0  0  -0.088987  0  4.046694  0  0  -0.092267  -0.082107  0  4.007065  0
C  C83  1  0.93268847  0.15035647  0.29839948  1  0  -0.074921  0  3.776643  0  0  -0.084541  0  4.022739  0  0  -0.088667  0  4.046259  0  0  -0.091958  -0.081782  0  4.006629  0
C  C84  1  0.34502806  0.07866342  0.15947984  1  0  -0.059805  0  3.771818  0  0  -0.076151  0  4.018597  0  0  -0.076765  0  4.040417  0  0  -0.091303  -0.075406  0  4.003569  0
C  C85  1  0.15485339  0.92128923  0.65948153  1  0  -0.059886  0  3.771543  0  0  -0.076215  0  4.01831  0  0  -0.076827  0  4.040121  0  0  -0.091454  -0.075443  0  4.003291  0
C  C86  1  0.65492844  0.92139426  0.84052689  1  0  -0.059928  0  3.772046  0  0  -0.076321  0  4.018855  0  0  -0.076936  0  4.04067  0  0  -0.091512  -0.075578  0  4.003831  0
C  C87  1  0.84517808  0.07866664  0.34050277  1  0  -0.059734  0  3.77138  0  0  -0.076113  0  4.018189  0  0  -0.076728  0  4.040006  0  0  -0.091434  -0.075408  0  4.003146  0
C  C88  1  0.36402173  0.07908012  0.08326048  1  0  -0.082101  0  3.785689  0  0  -0.092387  0  4.030279  0  0  -0.09627  0  4.053417  0  0  -0.098089  -0.089803  0  4.014452  0
C  C89  1  0.13590378  0.92087670  0.58326409  1  0  -0.082139  0  3.785741  0  0  -0.092316  0  4.030271  0  0  -0.096199  0  4.053413  0  0  -0.098082  -0.089718  0  4.014432  0
C  C90  1  0.63598297  0.92095509  0.91674736  1  0  -0.082636  0  3.785776  0  0  -0.092771  0  4.030365  0  0  -0.096657  0  4.053501  0  0  -0.098298  -0.090186  0  4.014541  0
C  C91  1  0.86408029  0.07908272  0.41672075  1  0  -0.082276  0  3.786142  0  0  -0.09244  0  4.030647  0  0  -0.096316  0  4.053779  0  0  -0.098105  -0.089861  0  4.014836  0
C  C92  1  0.46583549  0.15258099  0.04888517  1  0  -0.087145  0  3.754631  0  0  -0.107032  0  3.995567  0  0  -0.107509  0  4.016679  0  0  -0.087554  -0.106457  0  3.981194  0
C  C93  1  0.03404664  0.84739400  0.54888716  1  0  -0.087266  0  3.754738  0  0  -0.107321  0  3.99559  0  0  -0.107819  0  4.016694  0  0  -0.087707  -0.106741  0  3.981212  0
C  C94  1  0.53418254  0.84745343  0.95112266  1  0  -0.087377  0  3.754972  0  0  -0.107237  0  3.995856  0  0  -0.107735  0  4.016955  0  0  -0.087565  -0.10666  0  3.98148  0
C  C95  1  0.96588588  0.15257751  0.45110425  1  0  -0.086926  0  3.754658  0  0  -0.10694  0  3.995598  0  0  -0.107422  0  4.016705  0  0  -0.087553  -0.106363  0  3.981219  0
Br  Br96  1  0.73060791  0.18683045  0.84157982  1  0  -0.057954  0  1.27497  0  0  -0.053673  0  1.509604  0  0  -0.057538  0  1.501671  0  0  0.05373  -0.050945  0  1.515245  0
Br  Br97  1  0.76938145  0.81315424  0.34156419  1  0  -0.058086  0  1.274813  0  0  -0.053774  0  1.509466  0  0  -0.057629  0  1.501528  0  0  0.053652  -0.051047  0  1.515114  0
Br  Br98  1  0.26940632  0.81318154  0.15842035  1  0  -0.058138  0  1.274638  0  0  -0.05384  0  1.509265  0  0  -0.057698  0  1.501331  0  0  0.053602  -0.051107  0  1.514899  0
Br  Br99  1  0.23052442  0.18681960  0.65846117  1  0  -0.058089  0  1.274399  0  0  -0.053807  0  1.508982  0  0  -0.057672  0  1.501055  0  0  0.053545  -0.051073  0  1.514618  0
N  N100  1  0.61158862  0.44022453  0.71334827  1  0  -0.349493  0  3.143333  0  0  -0.306374  0  3.421607  0  0  -0.31776  0  3.438507  0  0  -0.388415  -0.298528  0  3.410123  0
N  N101  1  0.88835248  0.55975774  0.21334230  1  0  -0.349103  0  3.143514  0  0  -0.306021  0  3.421738  0  0  -0.317418  0  3.438644  0  0  -0.388314  -0.298161  0  3.410246  0
N  N102  1  0.38836935  0.55979229  0.28666832  1  0  -0.349365  0  3.143224  0  0  -0.306295  0  3.421431  0  0  -0.31769  0  3.438329  0  0  -0.388471  -0.298437  0  3.409936  0
N  N103  1  0.11165736  0.44025602  0.78665239  1  0  -0.349254  0  3.14346  0  0  -0.306134  0  3.42159  0  0  -0.317536  0  3.43852  0  0  -0.388336  -0.298274  0  3.410102  0
N  N104  1  0.61299636  0.32579203  0.98400413  1  0  -0.630998  0  3.083229  0  0  -0.578001  0  3.342636  0  0  -0.608354  0  3.349557  0  0  -0.359704  -0.557218  0  3.337311  0
N  N105  1  0.88694312  0.67418116  0.48400224  1  0  -0.631329  0  3.083995  0  0  -0.578258  0  3.343672  0  0  -0.608597  0  3.350572  0  0  -0.360003  -0.557483  0  3.338355  0
N  N106  1  0.38706097  0.67422045  0.01600370  1  0  -0.630763  0  3.083694  0  0  -0.577788  0  3.342985  0  0  -0.608134  0  3.349894  0  0  -0.359394  -0.557013  0  3.337677  0
N  N107  1  0.11301973  0.32576667  0.51600998  1  0  -0.630761  0  3.083435  0  0  -0.577809  0  3.342843  0  0  -0.608163  0  3.349774  0  0  -0.359594  -0.55703  0  3.337522  0
O  O108  1  0.81106442  0.46052282  0.96852140  1  0  -0.664898  0  1.967885  0  0  -0.615639  0  2.203693  0  0  -0.636927  0  2.192309  0  0  -0.423643  -0.600769  0  2.211125  0
O  O109  1  0.68894085  0.53943381  0.46852481  1  0  -0.66526  0  1.967546  0  0  -0.615982  0  2.203416  0  0  -0.637265  0  2.192011  0  0  -0.423827  -0.601106  0  2.210848  0
O  O110  1  0.18902365  0.53947727  0.03146891  1  0  -0.664944  0  1.967513  0  0  -0.615672  0  2.203291  0  0  -0.636975  0  2.191931  0  0  -0.423684  -0.600795  0  2.210708  0
O  O111  1  0.31106059  0.46051326  0.53147810  1  0  -0.664999  0  1.967006  0  0  -0.615737  0  2.202817  0  0  -0.63703  0  2.191436  0  0  -0.423731  -0.600858  0  2.210244  0
O  O112  1  0.77450125  0.35303092  0.09564208  1  0  -0.612781  0  1.903066  0  0  -0.568619  0  2.120062  0  0  -0.588975  0  2.111363  0  0  -0.360842  -0.554614  0  2.125734  0
O  O113  1  0.72537967  0.64693996  0.59563117  1  0  -0.612577  0  1.903035  0  0  -0.56833  0  2.120164  0  0  -0.588678  0  2.111463  0  0  -0.360798  -0.554325  0  2.125832  0
O  O114  1  0.22551813  0.64699964  0.90435590  1  0  -0.612968  0  1.902527  0  0  -0.568853  0  2.119428  0  0  -0.589201  0  2.110707  0  0  -0.36094  -0.554843  0  2.125099  0
O  O115  1  0.27451532  0.35306095  0.40436024  1  0  -0.612736  0  1.902899  0  0  -0.568577  0  2.119883  0  0  -0.588935  0  2.111183  0  0  -0.360928  -0.554567  0  2.125549  0
O  O116  1  0.76818021  0.68753574  0.06490811  1  0  -0.858753  0  1.790472  0  0  -0.820314  0  1.966034  0  0  -0.836481  0  1.937666  0  0  -0.651401  -0.808784  0  1.984767  0
O  O117  1  0.73185162  0.31244240  0.56491566  1  0  -0.858701  0  1.790223  0  0  -0.820266  0  1.965702  0  0  -0.836431  0  1.937566  0  0  -0.651362  -0.808745  0  1.98444  0
O  O118  1  0.23183737  0.31248663  0.93510411  1  0  -0.858976  0  1.790322  0  0  -0.820522  0  1.965898  0  0  -0.836695  0  1.937574  0  0  -0.651439  -0.808994  0  1.984639  0
O  O119  1  0.26811085  0.68753565  0.43508616  1  0  -0.859245  0  1.790041  0  0  -0.820678  0  1.965661  0  0  -0.836863  0  1.937195  0  0  -0.651493  -0.809139  0  1.984435  0
