# generated using pymatgen
data_CdH20C14(NO2)2
_symmetry_space_group_name_H-M   'P 1'
_cell_length_a   14.34096546
_cell_length_b   16.33818813
_cell_length_c   16.33822396
_cell_angle_alpha   119.99995298
_cell_angle_beta   90.00008224
_cell_angle_gamma   89.99997493
_symmetry_Int_Tables_number   1
_chemical_formula_structural   CdH20C14(NO2)2
_chemical_formula_sum   'Cd6 H120 C84 N12 O24'
_cell_volume   3315.26283100
_cell_formula_units_Z   6
loop_
 _symmetry_equiv_pos_site_id
 _symmetry_equiv_pos_as_xyz
  1  'x, y, z'
loop_
 _atom_site_type_symbol
 _atom_site_label
 _atom_site_symmetry_multiplicity
 _atom_site_fract_x
 _atom_site_fract_y
 _atom_site_fract_z
 _atom_site_occupancy
 _atom_site_pbe_bader_charge
 _atom_site_pbe_bader_spin_density
 _atom_site_pbe_cm5_charge
 _atom_site_pbe_ddec_charge
 _atom_site_pbe_ddec_spin_density
 _atom_site_pbe_ddec_sum_bond_order
 _atom_site_pbe_magmom
Cd  Cd0  1  0.56399532  0.34552771  0.73352598  1  1.233172  0  0.763706  0.851125  0  2.129545  0
Cd  Cd1  1  0.39732833  0.73352584  0.38799785  1  1.233855  0  0.763725  0.851159  0  2.129466  0
Cd  Cd2  1  0.23065715  0.38799772  0.65447179  1  1.232525  0  0.763714  0.851106  0  2.129529  0
Cd  Cd3  1  0.06399365  0.65447291  0.26647423  1  1.233229  0  0.763723  0.851151  0  2.129542  0
Cd  Cd4  1  0.89732705  0.26647393  0.61200258  1  1.233845  0  0.763723  0.851123  0  2.129538  0
Cd  Cd5  1  0.73065735  0.61200234  0.34552805  1  1.232537  0  0.763717  0.851112  0  2.129482  0
H  H6  1  0.62554470  0.05176100  0.44101704  1  0.026149  0  0.080385  0.108804  0  1.034114  0
H  H7  1  0.45887657  0.44101454  0.38925402  1  0.034967  0  0.080396  0.108849  0  1.034162  0
H  H8  1  0.29221252  0.38925401  0.94823852  1  0.026009  0  0.080402  0.108846  0  1.034162  0
H  H9  1  0.12554337  0.94823903  0.55898264  1  0.026144  0  0.08039  0.108812  0  1.034125  0
H  H10  1  0.95887932  0.55898280  0.61074405  1  0.034907  0  0.080405  0.108823  0  1.034111  0
H  H11  1  0.79221294  0.61074624  0.05176369  1  0.025998  0  0.080418  0.108845  0  1.034098  0
H  H12  1  0.67466684  0.03341054  0.33317039  1  0.020697  0  0.08232  0.109239  0  1.031399  0
H  H13  1  0.50799943  0.33316965  0.29975792  1  0.018517  0  0.082322  0.109251  0  1.031374  0
H  H14  1  0.34133687  0.29975741  0.96658763  1  0.018146  0  0.082342  0.109295  0  1.031343  0
H  H15  1  0.17466707  0.96658925  0.66682841  1  0.019729  0  0.082318  0.109255  0  1.031394  0
H  H16  1  0.00800335  0.66682911  0.70024038  1  0.018633  0  0.082332  0.109286  0  1.031383  0
H  H17  1  0.84134000  0.70024163  0.03341342  1  0.018376  0  0.082313  0.10926  0  1.031373  0
H  H18  1  0.55180064  0.03015950  0.34514194  1  0.011041  0  0.084468  0.116102  0  0.998854  0
H  H19  1  0.38513254  0.34513985  0.31497907  1  0.023661  0  0.084456  0.116078  0  0.998834  0
H  H20  1  0.21846997  0.31497756  0.96983820  1  0.018129  0  0.084472  0.116112  0  0.998817  0
H  H21  1  0.05180015  0.96984051  0.65485765  1  0.01154  0  0.084463  0.116097  0  0.998832  0
H  H22  1  0.88513606  0.65485914  0.68501845  1  0.023567  0  0.084484  0.116106  0  0.998808  0
H  H23  1  0.71847171  0.68502214  0.03016197  1  0.018182  0  0.084476  0.116106  0  0.998819  0
H  H24  1  0.67623374  0.20452807  0.45812075  1  0.01709  0  0.089786  0.05538  0  0.977533  0
H  H25  1  0.50956690  0.45812109  0.25359269  1  0.014382  0  0.08978  0.055378  0  0.977537  0
H  H26  1  0.34290358  0.25359106  0.79547107  1  0.016195  0  0.089788  0.055396  0  0.977529  0
H  H27  1  0.17623385  0.79547198  0.54187901  1  0.016969  0  0.089769  0.055339  0  0.97754  0
H  H28  1  0.00956747  0.54187758  0.74640693  1  0.014345  0  0.089767  0.055381  0  0.977556  0
H  H29  1  0.84290348  0.74641149  0.20453137  1  0.01617  0  0.089791  0.055375  0  0.977542  0
H  H30  1  0.53987669  0.16506389  0.29733189  1  0.02896  0  0.084224  0.112828  0  1.000964  0
H  H31  1  0.37321061  0.29733432  0.13226525  1  0.015792  0  0.084241  0.112847  0  1.000951  0
H  H32  1  0.20654602  0.13226546  0.83493293  1  0.022323  0  0.084248  0.112868  0  1.000898  0
H  H33  1  0.03987704  0.83493611  0.70266767  1  0.028895  0  0.08423  0.112846  0  1.000947  0
H  H34  1  0.87321162  0.70266563  0.86773251  1  0.015808  0  0.084239  0.112855  0  1.00095  0
H  H35  1  0.70654301  0.86773190  0.16506346  1  0.022251  0  0.084234  0.112852  0  1.000932  0
H  H36  1  0.66339695  0.15715352  0.28613381  1  0.027262  0  0.083951  0.111708  0  1.015874  0
H  H37  1  0.49673089  0.28613481  0.12897857  1  0.023233  0  0.083963  0.111732  0  1.015865  0
H  H38  1  0.33006630  0.12897756  0.84284565  1  0.028058  0  0.083942  0.111686  0  1.015787  0
H  H39  1  0.16339732  0.84284749  0.71386619  1  0.028461  0  0.083924  0.111653  0  1.015917  0
H  H40  1  0.99673189  0.71386641  0.87102059  1  0.023231  0  0.083951  0.111715  0  1.015848  0
H  H41  1  0.83006397  0.87102202  0.15715240  1  0.028112  0  0.083963  0.111722  0  1.015772  0
H  H42  1  0.60999891  0.26785234  0.36045398  1  0.014097  0  0.080761  0.103404  0  1.048403  0
H  H43  1  0.44333415  0.36045737  0.09260159  1  0.0181  0  0.080742  0.103381  0  1.048438  0
H  H44  1  0.27666953  0.09259955  0.73214531  1  0.022069  0  0.080758  0.103394  0  1.048403  0
H  H45  1  0.10999991  0.73214795  0.63954665  1  0.014195  0  0.080762  0.103414  0  1.048412  0
H  H46  1  0.94333595  0.63954347  0.90739784  1  0.01815  0  0.080769  0.103432  0  1.048392  0
H  H47  1  0.77666667  0.90740169  0.26785222  1  0.022104  0  0.080754  0.103409  0  1.048404  0
H  H48  1  0.46348585  0.18276349  0.44391547  1  0.052893  0  0.095406  0.097364  0  0.985242  0
H  H49  1  0.29681903  0.44391485  0.26114925  1  0.034974  0  0.095375  0.097343  0  0.98519  0
H  H50  1  0.13015572  0.26115075  0.81723627  1  0.043554  0  0.095395  0.097337  0  0.985266  0
H  H51  1  0.96348559  0.81723639  0.55608374  1  0.05319  0  0.095398  0.097369  0  0.98523  0
H  H52  1  0.79681990  0.55608691  0.73885023  1  0.034954  0  0.095406  0.097363  0  0.985231  0
H  H53  1  0.63015559  0.73884928  0.18276342  1  0.043567  0  0.0954  0.097324  0  0.985211  0
H  H54  1  0.53017530  0.19327017  0.53971891  1  0.045888  0  0.092108  0.094618  0  1.017177  0
H  H55  1  0.36350775  0.53971970  0.34644747  1  0.05341  0  0.092105  0.094544  0  1.017211  0
H  H56  1  0.19684506  0.34644719  0.80672794  1  0.044749  0  0.092108  0.094558  0  1.017253  0
H  H57  1  0.03017527  0.80672922  0.46028003  1  0.045868  0  0.092105  0.094599  0  1.017202  0
H  H58  1  0.86350714  0.46028147  0.65355150  1  0.0534  0  0.092115  0.094634  0  1.017168  0
H  H59  1  0.69684569  0.65355312  0.19327281  1  0.044758  0  0.092112  0.094569  0  1.017244  0
H  H60  1  0.51479271  0.34498275  0.48152984  1  0.044298  0  0.10737  0.074476  0  0.989292  0
H  H61  1  0.34812648  0.48152903  0.13654558  1  0.049617  0  0.107394  0.07451  0  0.989318  0
H  H62  1  0.18146388  0.13654445  0.65501704  1  0.03995  0  0.107406  0.074529  0  0.98924  0
H  H63  1  0.01479285  0.65501689  0.51847005  1  0.044296  0  0.107369  0.074473  0  0.989288  0
H  H64  1  0.84812827  0.51847117  0.86345311  1  0.049999  0  0.107378  0.07447  0  0.989345  0
H  H65  1  0.68146395  0.86345560  0.34498273  1  0.039943  0  0.107397  0.074528  0  0.989249  0
H  H66  1  0.50357244  0.60374110  0.60717600  1  0.097193  0  0.109004  0.117823  0  1.00605  0
H  H67  1  0.33690883  0.60717388  0.00343413  1  0.071084  0  0.108957  0.117762  0  1.006065  0
H  H68  1  0.17024270  0.00343568  0.39626204  1  0.0755  0  0.108963  0.117749  0  1.006037  0
H  H69  1  0.00357181  0.39625889  0.39282352  1  0.098295  0  0.108987  0.117803  0  1.006063  0
H  H70  1  0.83690741  0.39282632  0.99656454  1  0.071022  0  0.108959  0.117766  0  1.006036  0
H  H71  1  0.67024103  0.99656556  0.60374386  1  0.075734  0  0.108996  0.117826  0  1.006066  0
H  H72  1  0.64249136  0.50482392  0.69972988  1  0.105662  0  0.112794  0.107022  0  0.99838  0
H  H73  1  0.47582569  0.69972971  0.19490428  1  0.105498  0  0.112794  0.10701  0  0.998442  0
H  H74  1  0.30915876  0.19490724  0.49517622  1  0.065257  0  0.11279  0.106995  0  0.998362  0
H  H75  1  0.14249192  0.49517576  0.30027019  1  0.105663  0  0.112802  0.10704  0  0.998357  0
H  H76  1  0.97582610  0.30026992  0.80509398  1  0.105494  0  0.112788  0.107007  0  0.998376  0
H  H77  1  0.80915843  0.80509434  0.50482593  1  0.065521  0  0.112777  0.106974  0  0.998396  0
H  H78  1  0.52316116  0.50170094  0.67278589  1  0.058936  0  0.11522  0.106088  0  0.961623  0
H  H79  1  0.35649619  0.67278478  0.17108102  1  0.073658  0  0.115235  0.106122  0  0.961618  0
H  H80  1  0.18982998  0.17108314  0.49829899  1  0.064544  0  0.115243  0.106111  0  0.961587  0
H  H81  1  0.02316107  0.49829906  0.32721366  1  0.058932  0  0.115217  0.106093  0  0.961625  0
H  H82  1  0.85649663  0.32721491  0.82891575  1  0.073687  0  0.115231  0.106104  0  0.961633  0
H  H83  1  0.68982824  0.82891514  0.50170256  1  0.064514  0  0.115248  0.106149  0  0.961524  0
H  H84  1  0.55337790  0.65246914  0.49028671  1  0.128469  0  0.114676  0.092874  0  1.030858  0
H  H85  1  0.38671511  0.49028461  0.83781699  1  0.130372  0  0.114625  0.092777  0  1.030913  0
H  H86  1  0.22004872  0.83781827  0.34753384  1  0.138597  0  0.114605  0.092744  0  1.030915  0
H  H87  1  0.05337749  0.34752965  0.50971165  1  0.128448  0  0.114662  0.092845  0  1.030888  0
H  H88  1  0.88671367  0.50971560  0.16218175  1  0.130479  0  0.114594  0.092724  0  1.030899  0
H  H89  1  0.72004685  0.16218309  0.65247081  1  0.138476  0  0.114625  0.092765  0  1.030903  0
H  H90  1  0.77182691  0.46146197  0.39593837  1  0.149627  0  0.116398  0.090784  0  1.010437  0
H  H91  1  0.60516494  0.39593765  0.93447609  1  0.128042  0  0.116466  0.090862  0  1.010428  0
H  H92  1  0.43849858  0.93447607  0.53853898  1  0.130864  0  0.116491  0.090881  0  1.010384  0
H  H93  1  0.27182515  0.53853959  0.60406371  1  0.149236  0  0.116372  0.090771  0  1.010454  0
H  H94  1  0.10516507  0.60406141  0.06552331  1  0.128069  0  0.116439  0.090825  0  1.010459  0
H  H95  1  0.93849506  0.06552362  0.46146282  1  0.130865  0  0.116409  0.090769  0  1.010455  0
H  H96  1  0.73572763  0.40746163  0.51028272  1  0.142668  0  0.105249  0.126964  0  1.054988  0
H  H97  1  0.56906625  0.51028290  0.10282086  1  0.142859  0  0.105269  0.127003  0  1.054903  0
H  H98  1  0.40240014  0.10282116  0.59253916  1  0.138854  0  0.105245  0.126956  0  1.054949  0
H  H99  1  0.23572497  0.59254053  0.48971993  1  0.142699  0  0.105246  0.126976  0  1.055005  0
H  H100  1  0.06906709  0.48971579  0.89717884  1  0.1433  0  0.105265  0.126997  0  1.05491  0
H  H101  1  0.90239472  0.89717887  0.40746225  1  0.139711  0  0.105267  0.127012  0  1.054945  0
H  H102  1  0.51053880  0.12800057  0.83717949  1  0.020788  0  0.101214  0.152894  0  0.985045  0
H  H103  1  0.34387471  0.83718275  0.70918112  1  0.061901  0  0.101215  0.152904  0  0.985089  0
H  H104  1  0.17720548  0.70918168  0.87200283  1  0.038551  0  0.101216  0.152894  0  0.985038  0
H  H105  1  0.01053965  0.87200030  0.16282161  1  0.020803  0  0.101205  0.152879  0  0.98506  0
H  H106  1  0.84387504  0.16281761  0.29081985  1  0.06191  0  0.101207  0.152895  0  0.985081  0
H  H107  1  0.67720479  0.29081924  0.12799851  1  0.038527  0  0.101209  0.152886  0  0.985067  0
H  H108  1  0.59908928  0.06296450  0.75543957  1  0.053947  0  0.097764  0.147117  0  0.99786  0
H  H109  1  0.43242245  0.75543859  0.69247139  1  0.053369  0  0.097764  0.147107  0  0.997939  0
H  H110  1  0.26575815  0.69247193  0.93703354  1  0.053234  0  0.097752  0.147105  0  0.99789  0
H  H111  1  0.09908953  0.93703543  0.24456140  1  0.051054  0  0.097743  0.147103  0  0.997879  0
H  H112  1  0.93242207  0.24456154  0.30752873  1  0.053387  0  0.097769  0.147125  0  0.997918  0
H  H113  1  0.76575735  0.30752744  0.06296705  1  0.053272  0  0.097747  0.147118  0  0.997888  0
H  H114  1  0.48079735  0.05402236  0.71543508  1  0.062066  0  0.095013  0.147743  0  1.008035  0
H  H115  1  0.31412845  0.71543935  0.66141747  1  0.062127  0  0.095034  0.147793  0  1.008112  0
H  H116  1  0.14746488  0.66141474  0.94598041  1  0.065349  0  0.095025  0.147742  0  1.008144  0
H  H117  1  0.98079728  0.94597840  0.28456573  1  0.06221  0  0.09505  0.147783  0  1.008072  0
H  H118  1  0.81412740  0.28455942  0.33858259  1  0.062138  0  0.095037  0.147789  0  1.008088  0
H  H119  1  0.64746404  0.33858556  0.05402027  1  0.065689  0  0.09505  0.147787  0  1.008055  0
H  H120  1  0.65486913  0.34171493  0.57793623  1  0.425102  0  0.302007  0.257159  0  0.956683  0
H  H121  1  0.48820219  0.57793676  0.23622054  1  0.430986  0  0.302008  0.257181  0  0.956668  0
H  H122  1  0.32153671  0.23622302  0.65828517  1  0.424915  0  0.301999  0.257181  0  0.956667  0
H  H123  1  0.15486842  0.65828485  0.42206253  1  0.424842  0  0.302005  0.257163  0  0.956707  0
H  H124  1  0.98820316  0.42206349  0.76377834  1  0.430942  0  0.302003  0.257158  0  0.956691  0
H  H125  1  0.82153613  0.76377821  0.34171734  1  0.425032  0  0.302024  0.257208  0  0.956669  0
C  C126  1  0.61624542  0.06606163  0.38255508  1  -0.069046  0  -0.246413  -0.389867  0  3.933413  0
C  C127  1  0.44957798  0.38255455  0.31649164  1  -0.080939  0  -0.246396  -0.389868  0  3.933421  0
C  C128  1  0.28291469  0.31649085  0.93393697  1  -0.073754  0  -0.246461  -0.389951  0  3.933357  0
C  C129  1  0.11624489  0.93393875  0.61744424  1  -0.068573  0  -0.246389  -0.38987  0  3.933391  0
C  C130  1  0.94958152  0.61744411  0.68350632  1  -0.080854  0  -0.24645  -0.389891  0  3.933413  0
C  C131  1  0.78291649  0.68350879  0.06606461  1  -0.073992  0  -0.246461  -0.389918  0  3.93335  0
C  C132  1  0.61138173  0.17235290  0.41848021  1  0.061448  0  -0.09389  0.124133  0  3.861864  0
C  C133  1  0.44471493  0.41847942  0.24612505  1  0.058376  0  -0.093925  0.12405  0  3.861899  0
C  C134  1  0.27805093  0.24612349  0.82764499  1  0.065531  0  -0.09387  0.124001  0  3.861922  0
C  C135  1  0.11138050  0.82764677  0.58151981  1  0.061933  0  -0.093952  0.124109  0  3.861914  0
C  C136  1  0.94471720  0.58152081  0.75387378  1  0.058276  0  -0.093927  0.123998  0  3.861994  0
C  C137  1  0.77805148  0.75387720  0.17235553  1  0.065507  0  -0.093894  0.124028  0  3.861961  0
C  C138  1  0.60590783  0.19192640  0.33623669  1  -0.096342  0  -0.245772  -0.393289  0  3.942098  0
C  C139  1  0.43924173  0.33623839  0.14430933  1  -0.079844  0  -0.245772  -0.393298  0  3.942149  0
C  C140  1  0.27257781  0.14430966  0.80807208  1  -0.096959  0  -0.245795  -0.39327  0  3.942043  0
C  C141  1  0.10590744  0.80807301  0.66376236  1  -0.097567  0  -0.245742  -0.393262  0  3.942145  0
C  C142  1  0.93924274  0.66376158  0.85568853  1  -0.079863  0  -0.245759  -0.393294  0  3.942117  0
C  C143  1  0.77257554  0.85568955  0.19192625  1  -0.096969  0  -0.245781  -0.393309  0  3.942121  0
C  C144  1  0.52742090  0.21437924  0.48533098  1  -0.069153  0  -0.160838  -0.225675  0  3.874176  0
C  C145  1  0.36075406  0.48533108  0.27095048  1  -0.062111  0  -0.16079  -0.225525  0  3.874036  0
C  C146  1  0.19409002  0.27094976  0.78561985  1  -0.034571  0  -0.160841  -0.225529  0  3.874067  0
C  C147  1  0.02742028  0.78561979  0.51466831  1  -0.069779  0  -0.160783  -0.225613  0  3.874162  0
C  C148  1  0.86075423  0.51466938  0.72904919  1  -0.062105  0  -0.160829  -0.225673  0  3.874106  0
C  C149  1  0.69409134  0.72905116  0.21438151  1  -0.034549  0  -0.160843  -0.225524  0  3.874053  0
C  C150  1  0.51647674  0.32217792  0.53462911  1  0.316876  0  -0.005365  -0.000942  0  3.870151  0
C  C151  1  0.34981052  0.53462895  0.21244866  1  0.303031  0  -0.00542  -0.001047  0  3.87015  0
C  C152  1  0.18314647  0.21244850  0.67782156  1  0.292447  0  -0.005326  -0.000896  0  3.869934  0
C  C153  1  0.01647748  0.67782111  0.46537017  1  0.316556  0  -0.005366  -0.000939  0  3.870157  0
C  C154  1  0.84981291  0.46537257  0.78754994  1  0.302681  0  -0.005329  -0.000834  0  3.87006  0
C  C155  1  0.68314724  0.78755243  0.32217979  1  0.292435  0  -0.005315  -0.000916  0  3.870064  0
C  C156  1  0.56419037  0.57095756  0.56217145  1  -0.004499  0  -0.086545  -0.190813  0  3.957632  0
C  C157  1  0.39752621  0.56216784  0.99121153  1  -0.024191  0  -0.0865  -0.190764  0  3.957583  0
C  C158  1  0.23086113  0.99121334  0.42904461  1  0.012183  0  -0.08648  -0.19068  0  3.957593  0
C  C159  1  0.06418910  0.42904271  0.43782912  1  -0.005651  0  -0.086499  -0.190795  0  3.95767  0
C  C160  1  0.89752594  0.43783176  0.00878662  1  -0.024166  0  -0.086511  -0.19079  0  3.957581  0
C  C161  1  0.73085781  0.00878802  0.57096006  1  0.011899  0  -0.08652  -0.190852  0  3.957618  0
C  C162  1  0.61565136  0.50205796  0.56923187  1  -0.042653  0  0.007398  0.135661  0  3.963603  0
C  C163  1  0.44898851  0.56922977  0.06717284  1  -0.054169  0  0.007425  0.135645  0  3.963586  0
C  C164  1  0.28232239  0.06717422  0.49794303  1  -0.042942  0  0.007365  0.135524  0  3.963571  0
C  C165  1  0.11565004  0.49794233  0.43076877  1  -0.042583  0  0.007397  0.135696  0  3.963613  0
C  C166  1  0.94898767  0.43076889  0.93282512  1  -0.054536  0  0.007422  0.135673  0  3.963515  0
C  C167  1  0.78231850  0.93282603  0.50205917  1  -0.043143  0  0.007417  0.135734  0  3.963539  0
C  C168  1  0.59187757  0.47349487  0.64138822  1  0.249413  0  -0.066483  -0.09246  0  3.91081  0
C  C169  1  0.42521333  0.64138828  0.16789235  1  0.233363  0  -0.06652  -0.092501  0  3.910982  0
C  C170  1  0.25854714  0.16789353  0.52650601  1  0.302054  0  -0.066526  -0.092446  0  3.910826  0
C  C171  1  0.09187752  0.52650577  0.35861204  1  0.249421  0  -0.066513  -0.092531  0  3.910845  0
C  C172  1  0.92521375  0.35861291  0.83210671  1  0.233339  0  -0.066541  -0.092518  0  3.910943  0
C  C173  1  0.75854534  0.83210671  0.47349615  1  0.301779  0  -0.066499  -0.092496  0  3.910804  0
C  C174  1  0.59065784  0.59775958  0.49682689  1  0.441905  0  0.049228  0.100675  0  3.938584  0
C  C175  1  0.42399508  0.49682489  0.89906738  1  0.485091  0  0.049293  0.100846  0  3.938619  0
C  C176  1  0.25732936  0.89906881  0.40224336  1  0.428426  0  0.049354  0.100899  0  3.938676  0
C  C177  1  0.09065739  0.40223912  0.50317284  1  0.44192  0  0.049197  0.100683  0  3.938621  0
C  C178  1  0.92399493  0.50317446  0.10092984  1  0.485051  0  0.049359  0.100963  0  3.938646  0
C  C179  1  0.75732674  0.10093230  0.59776038  1  0.428531  0  0.049251  0.100789  0  3.938587  0
C  C180  1  0.71322837  0.49112190  0.44470306  1  0.439076  0  0.047515  0.103058  0  3.950054  0
C  C181  1  0.54656708  0.44470196  0.95358089  1  0.468034  0  0.047425  0.102988  0  3.950088  0
C  C182  1  0.37990068  0.95358139  0.50887932  1  0.457158  0  0.047393  0.102942  0  3.94998  0
C  C183  1  0.21322725  0.50887842  0.55529772  1  0.439488  0  0.047556  0.103059  0  3.949938  0
C  C184  1  0.04656720  0.55529682  0.04641746  1  0.468008  0  0.047455  0.103027  0  3.950064  0
C  C185  1  0.87989652  0.04641792  0.49112276  1  0.457025  0  0.047473  0.10307  0  3.949966  0
C  C186  1  0.69191466  0.46140358  0.50856319  1  -0.03722  0  -0.089271  -0.188156  0  3.929506  0
C  C187  1  0.52525255  0.50856287  0.04715895  1  -0.02102  0  -0.08924  -0.188134  0  3.929492  0
C  C188  1  0.35858647  0.04716075  0.53859761  1  -0.017445  0  -0.089211  -0.188075  0  3.929352  0
C  C189  1  0.19191273  0.53859770  0.49143782  1  -0.037272  0  -0.08925  -0.188127  0  3.929435  0
C  C190  1  0.02525279  0.49143616  0.95284034  1  -0.021132  0  -0.089263  -0.188177  0  3.929476  0
C  C191  1  0.85858180  0.95284049  0.46140495  1  -0.01794  0  -0.08926  -0.188219  0  3.929515  0
C  C192  1  0.55178141  0.18564336  0.75065263  1  1.536643  0  0.187849  0.660808  0  4.176068  0
C  C193  1  0.38511033  0.75065497  0.56500826  1  1.545073  0  0.187948  0.660959  0  4.175898  0
C  C194  1  0.21844119  0.56500857  0.81435574  1  1.538391  0  0.187944  0.660974  0  4.175868  0
C  C195  1  0.05178103  0.81435629  0.24934731  1  1.536661  0  0.187831  0.660805  0  4.176003  0
C  C196  1  0.88511016  0.24934576  0.43499241  1  1.544541  0  0.18791  0.660863  0  4.176016  0
C  C197  1  0.71844400  0.43499140  0.18564540  1  1.539178  0  0.187918  0.660871  0  4.17595  0
C  C198  1  0.53388376  0.10169078  0.76410280  1  -0.052618  0  -0.242074  -0.509311  0  3.902732  0
C  C199  1  0.36721482  0.76410431  0.66241291  1  -0.092568  0  -0.242131  -0.509412  0  3.902877  0
C  C200  1  0.20054983  0.66241277  0.89831037  1  -0.075271  0  -0.242061  -0.509295  0  3.902794  0
C  C201  1  0.03388332  0.89831045  0.23589798  1  -0.049888  0  -0.242084  -0.509324  0  3.902759  0
C  C202  1  0.86721449  0.23589571  0.33758844  1  -0.092573  0  -0.242088  -0.509358  0  3.902834  0
C  C203  1  0.70054907  0.33758658  0.10169013  1  -0.07567  0  -0.242094  -0.509347  0  3.902753  0
C  C204  1  0.42204032  0.34941417  0.58594842  1  1.562538  0  0.195525  0.557457  0  4.179079  0
C  C205  1  0.25537616  0.58595112  0.23653616  1  1.568366  0  0.195641  0.557663  0  4.178736  0
C  C206  1  0.08871138  0.23653627  0.65058660  1  1.553281  0  0.195586  0.557603  0  4.178747  0
C  C207  1  0.92203991  0.65058596  0.41405169  1  1.562561  0  0.195542  0.557464  0  4.179003  0
C  C208  1  0.75537853  0.41404844  0.76346179  1  1.568333  0  0.195574  0.557564  0  4.17886  0
C  C209  1  0.58871081  0.76346507  0.34941295  1  1.553272  0  0.195564  0.557575  0  4.178837  0
N  N210  1  0.59084695  0.37048947  0.60445899  1  -1.043664  0  -0.480954  -0.345945  0  3.489899  0
N  N211  1  0.42418069  0.60445952  0.23396727  1  -1.05054  0  -0.480923  -0.345941  0  3.489932  0
N  N212  1  0.25751450  0.23396921  0.62950989  1  -1.062311  0  -0.480937  -0.345986  0  3.490007  0
N  N213  1  0.09084691  0.62951055  0.39554065  1  -1.043124  0  -0.480962  -0.345956  0  3.489983  0
N  N214  1  0.92418168  0.39554080  0.76603021  1  -1.050555  0  -0.480921  -0.345945  0  3.489925  0
N  N215  1  0.75751397  0.76603113  0.37049095  1  -1.062397  0  -0.480963  -0.346015  0  3.48999  0
N  N216  1  0.66385092  0.55808145  0.43883842  1  -1.259852  0  -0.33248  -0.233367  0  3.500694  0
N  N217  1  0.49718750  0.43883693  0.88075568  1  -1.262297  0  -0.332537  -0.233493  0  3.500774  0
N  N218  1  0.33052182  0.88075610  0.44191941  1  -1.262074  0  -0.332561  -0.233498  0  3.500846  0
N  N219  1  0.16384985  0.44191824  0.56116168  1  -1.259843  0  -0.332474  -0.233371  0  3.500699  0
N  N220  1  0.99718735  0.56116297  0.11924357  1  -1.262261  0  -0.332537  -0.233509  0  3.500723  0
N  N221  1  0.83051913  0.11924442  0.55808382  1  -1.262066  0  -0.33248  -0.233363  0  3.500601  0
O  O222  1  0.41788376  0.36689437  0.67121000  1  -1.178011  0  -0.328298  -0.566904  0  2.273967  0
O  O223  1  0.25121678  0.67120716  0.30431276  1  -1.181203  0  -0.328293  -0.566908  0  2.274164  0
O  O224  1  0.08454984  0.30430883  0.63310612  1  -1.171027  0  -0.328259  -0.566844  0  2.274298  0
O  O225  1  0.91788322  0.63310672  0.32879037  1  -1.178012  0  -0.328297  -0.5669  0  2.27395  0
O  O226  1  0.75121839  0.32879414  0.69568833  1  -1.1812  0  -0.328274  -0.566871  0  2.274331  0
O  O227  1  0.58454933  0.69569145  0.36689448  1  -1.171034  0  -0.328235  -0.566829  0  2.274278  0
O  O228  1  0.35187206  0.34950908  0.53890106  1  -1.163847  0  -0.332846  -0.549665  0  2.19111  0
O  O229  1  0.18520303  0.53889808  0.18938915  1  -1.166047  0  -0.332957  -0.549852  0  2.190678  0
O  O230  1  0.01853620  0.18938580  0.65049429  1  -1.163252  0  -0.332976  -0.549916  0  2.190586  0
O  O231  1  0.85187243  0.65048909  0.46109844  1  -1.163859  0  -0.332861  -0.549683  0  2.191076  0
O  O232  1  0.68520337  0.46110461  0.81061044  1  -1.165964  0  -0.332956  -0.549869  0  2.190693  0
O  O233  1  0.51853700  0.81061323  0.34950499  1  -1.163273  0  -0.332977  -0.549905  0  2.190655  0
O  O234  1  0.61753293  0.24205990  0.79630605  1  -1.182848  0  -0.347663  -0.587303  0  2.114983  0
O  O235  1  0.45086181  0.79630114  0.55424245  1  -1.181251  0  -0.34772  -0.587367  0  2.115116  0
O  O236  1  0.28419613  0.55424409  0.75793678  1  -1.178038  0  -0.347754  -0.587434  0  2.114778  0
O  O237  1  0.11753181  0.75793916  0.20369336  1  -1.182835  0  -0.347623  -0.587271  0  2.114961  0
O  O238  1  0.95086168  0.20369891  0.44575902  1  -1.181245  0  -0.347716  -0.587337  0  2.115172  0
O  O239  1  0.78419694  0.44575451  0.24206094  1  -1.178808  0  -0.347703  -0.587343  0  2.114974  0
O  O240  1  0.49889301  0.19784941  0.69403548  1  -1.174514  0  -0.342465  -0.58959  0  2.189977  0
O  O241  1  0.33221427  0.69404130  0.49618840  1  -1.185787  0  -0.342485  -0.58964  0  2.189745  0
O  O242  1  0.16555215  0.49618852  0.80214842  1  -1.178621  0  -0.342468  -0.589613  0  2.19006  0
O  O243  1  0.99889235  0.80215075  0.30596474  1  -1.174529  0  -0.342488  -0.589626  0  2.189976  0
O  O244  1  0.83221418  0.30595845  0.50381194  1  -1.185279  0  -0.342488  -0.58963  0  2.189805  0
O  O245  1  0.66555076  0.50381179  0.19785229  1  -1.178593  0  -0.34249  -0.589614  0  2.189907  0
