# generated using pymatgen
data_ZnH12PbC10(NO4)2
_symmetry_space_group_name_H-M   'P 1'
_cell_length_a   7.48360108
_cell_length_b   8.30732198
_cell_length_c   11.68256962
_cell_angle_alpha   103.29052733
_cell_angle_beta   107.16480049
_cell_angle_gamma   97.78289372
_symmetry_Int_Tables_number   1
_chemical_formula_structural   ZnH12PbC10(NO4)2
_chemical_formula_sum   'Zn2 H24 Pb2 C20 N4 O16'
_cell_volume   659.02201695
_cell_formula_units_Z   2
loop_
 _symmetry_equiv_pos_site_id
 _symmetry_equiv_pos_as_xyz
  1  'x, y, z'
loop_
 _atom_site_type_symbol
 _atom_site_label
 _atom_site_symmetry_multiplicity
 _atom_site_fract_x
 _atom_site_fract_y
 _atom_site_fract_z
 _atom_site_occupancy
 _atom_site_hle17_bader_spin_density
 _atom_site_hle17_ddec_charge
 _atom_site_hle17_ddec_spin_density
 _atom_site_hle17_ddec_sum_bond_order
 _atom_site_hle17_magmom
 _atom_site_hse06_10hf_bader_spin_density
 _atom_site_hse06_10hf_ddec_charge
 _atom_site_hse06_10hf_ddec_spin_density
 _atom_site_hse06_10hf_ddec_sum_bond_order
 _atom_site_hse06_10hf_magmom
 _atom_site_hse06_bader_spin_density
 _atom_site_hse06_ddec_charge
 _atom_site_hse06_ddec_spin_density
 _atom_site_hse06_ddec_sum_bond_order
 _atom_site_hse06_magmom
 _atom_site_pbe_bader_spin_density
 _atom_site_pbe_cm5_charge
 _atom_site_pbe_ddec_charge
 _atom_site_pbe_ddec_spin_density
 _atom_site_pbe_ddec_sum_bond_order
 _atom_site_pbe_magmom
Zn  Zn0  1  0.09613516  0.65339097  0.66422700  1  0  1.061646  0  1.726476  0  0  0.877537  0  2.140709  0  0  0.930355  0  2.091293  0  0  0.67711  0.840359  0  2.174368  0
Zn  Zn1  1  0.90376877  0.34653986  0.33565836  1  0  1.061307  0  1.726357  0  0  0.877314  0  2.140357  0  0  0.930132  0  2.090958  0  0  0.67704  0.840136  0  2.174014  0
H  H2  1  0.51485483  0.52962191  0.58677411  1  0  0.120092  0  0.931511  0  0  0.134701  0  0.99046  0  0  0.136655  0  0.989845  0  0  0.122287  0.133292  0  0.991084  0
H  H3  1  0.48536056  0.47035035  0.41332172  1  0  0.120366  0  0.931492  0  0  0.134873  0  0.990423  0  0  0.13683  0  0.989797  0  0  0.122412  0.13345  0  0.991033  0
H  H4  1  0.65836355  0.69813563  0.71550852  1  0  0.102373  0  0.938955  0  0  0.114702  0  1.004951  0  0  0.116605  0  1.003899  0  0  0.110725  0.113336  0  1.005818  0
H  H5  1  0.34160729  0.30197525  0.28455791  1  0  0.102526  0  0.939033  0  0  0.114718  0  1.005217  0  0  0.116582  0  1.004212  0  0  0.110593  0.113334  0  1.006077  0
H  H6  1  0.29758137  0.35674171  0.77224137  1  0  0.111233  0  0.937077  0  0  0.123602  0  1.00068  0  0  0.125597  0  0.999729  0  0  0.116463  0.122157  0  1.001449  0
H  H7  1  0.70228349  0.64330300  0.22772330  1  0  0.111176  0  0.937148  0  0  0.123678  0  1.000631  0  0  0.12566  0  0.999682  0  0  0.11656  0.122264  0  1.001393  0
H  H8  1  0.47789860  0.33982034  0.70353193  1  0  0.120394  0  0.93546  0  0  0.132291  0  0.998268  0  0  0.135397  0  0.995938  0  0  0.11261  0.130044  0  1.000103  0
H  H9  1  0.52201726  0.66019435  0.29648027  1  0  0.12063  0  0.935509  0  0  0.132479  0  0.998393  0  0  0.135575  0  0.996058  0  0  0.112631  0.130251  0  1.000234  0
H  H10  1  0.54239744  0.79900055  0.87428918  1  0  0.059877  0  0.941288  0  0  0.076587  0  1.008181  0  0  0.076783  0  1.008164  0  0  0.103822  0.076319  0  1.008362  0
H  H11  1  0.45768572  0.20095674  0.12572407  1  0  0.059761  0  0.94134  0  0  0.076585  0  1.008131  0  0  0.076778  0  1.00811  0  0  0.103872  0.076284  0  1.008348  0
H  H12  1  0.60784142  0.61422224  0.90860456  1  0  0.077786  0  0.928142  0  0  0.094035  0  0.993036  0  0  0.095015  0  0.992758  0  0  0.104753  0.093217  0  0.993431  0
H  H13  1  0.39207378  0.38565045  0.09134695  1  0  0.077744  0  0.928323  0  0  0.09413  0  0.993062  0  0  0.095111  0  0.992775  0  0  0.10473  0.093307  0  0.993462  0
H  H14  1  0.28664072  0.52236969  0.92610708  1  0  0.085293  0  0.92245  0  0  0.104703  0  0.979702  0  0  0.105611  0  0.979213  0  0  0.115182  0.103928  0  0.980265  0
H  H15  1  0.71338748  0.47765616  0.07394930  1  0  0.085366  0  0.922484  0  0  0.104712  0  0.979759  0  0  0.10562  0  0.979268  0  0  0.115218  0.103948  0  0.980309  0
H  H16  1  0.41094003  0.72040361  0.03335256  1  0  0.082004  0  0.905786  0  0  0.102426  0  0.959932  0  0  0.103331  0  0.959718  0  0  0.108194  0.101699  0  0.960227  0
H  H17  1  0.58909155  0.27966636  0.96663479  1  0  0.082025  0  0.905832  0  0  0.102504  0  0.959855  0  0  0.103405  0  0.959646  0  0  0.108208  0.101745  0  0.960204  0
H  H18  1  0.36150046  0.96028018  0.92897662  1  0  0.090885  0  0.943464  0  0  0.107682  0  1.005423  0  0  0.109191  0  1.004538  0  0  0.1127  0.10655  0  1.006197  0
H  H19  1  0.63851968  0.03968125  0.07103872  1  0  0.090888  0  0.943431  0  0  0.107542  0  1.005575  0  0  0.109037  0  1.004676  0  0  0.112645  0.106408  0  1.006352  0
H  H20  1  0.19780283  0.95510861  0.01235456  1  0  0.096501  0  0.910248  0  0  0.1131  0  0.968136  0  0  0.115242  0  0.966588  0  0  0.109392  0.111498  0  0.969426  0
H  H21  1  0.80218374  0.04485460  0.98763616  1  0  0.096413  0  0.910148  0  0  0.112937  0  0.968118  0  0  0.115091  0  0.966523  0  0  0.109303  0.111347  0  0.969401  0
H  H22  1  0.89704953  0.72406724  0.88238608  1  0  0.099846  0  0.942294  0  0  0.114312  0  1.007351  0  0  0.116067  0  1.0061  0  0  0.112597  0.113016  0  1.008378  0
H  H23  1  0.10300441  0.27598802  0.11775554  1  0  0.099884  0  0.942305  0  0  0.114228  0  1.007611  0  0  0.115985  0  1.006346  0  0  0.1125  0.112928  0  1.008637  0
H  H24  1  0.03076447  0.62788192  0.98807912  1  0  0.117323  0  0.953512  0  0  0.128261  0  1.018078  0  0  0.131003  0  1.016497  0  0  0.110292  0.126268  0  1.019316  0
H  H25  1  0.96931229  0.37202698  0.01191891  1  0  0.117421  0  0.95352  0  0  0.128207  0  1.018345  0  0  0.130937  0  1.016779  0  0  0.110298  0.126212  0  1.019583  0
Pb  Pb26  1  0.82522780  0.08747813  0.60592008  1  0  1.423286  0  1.348058  0  0  1.244367  0  1.73373  0  0  1.305128  0  1.68686  0  0  0.673696  1.199897  0  1.766841  0
Pb  Pb27  1  0.17500584  0.91267995  0.39430095  1  0  1.423446  0  1.347934  0  0  1.244499  0  1.733643  0  0  1.305269  0  1.68676  0  0  0.673775  1.200027  0  1.766764  0
C  C28  1  0.42633423  0.76310120  0.59231115  1  0  0.683597  0  3.862579  0  0  0.634167  0  4.158206  0  0  0.669036  0  4.150848  0  0  0.216197  0.610429  0  4.162338  0
C  C29  1  0.57366617  0.23679707  0.40762700  1  0  0.683967  0  3.861878  0  0  0.634332  0  4.157772  0  0  0.669207  0  4.150393  0  0  0.216167  0.610571  0  4.161908  0
C  C30  1  0.50796372  0.63796861  0.65817086  1  0  -0.169349  0  3.637681  0  0  -0.224859  0  3.885614  0  0  -0.226344  0  3.892564  0  0  -0.070388  -0.224063  0  3.88115  0
C  C31  1  0.49206225  0.36201776  0.34183812  1  0  -0.170017  0  3.638143  0  0  -0.225241  0  3.886048  0  0  -0.226714  0  3.893056  0  0  -0.070426  -0.224349  0  3.881467  0
C  C32  1  0.35100337  0.39436105  0.70215327  1  0  -0.195061  0  3.661938  0  0  -0.25228  0  3.91398  0  0  -0.254711  0  3.920968  0  0  -0.075583  -0.250649  0  3.909246  0
C  C33  1  0.64891589  0.60567651  0.29782956  1  0  -0.195229  0  3.661531  0  0  -0.252574  0  3.913886  0  0  -0.254932  0  3.920771  0  0  -0.075675  -0.251054  0  3.909304  0
C  C34  1  0.19436690  0.31124439  0.57719879  1  0  0.718621  0  3.824347  0  0  0.658052  0  4.129753  0  0  0.693808  0  4.12039  0  0  0.227943  0.63366  0  4.135392  0
C  C35  1  0.80557252  0.68884841  0.42278135  1  0  0.719373  0  3.823038  0  0  0.658504  0  4.129061  0  0  0.694232  0  4.11971  0  0  0.227949  0.634118  0  4.134741  0
C  C36  1  0.48508024  0.66570923  0.86490013  1  0  -0.032966  0  3.668213  0  0  -0.096343  0  3.937511  0  0  -0.093121  0  3.94985  0  0  -0.071714  -0.0984  0  3.928961  0
C  C37  1  0.51490525  0.33426143  0.13508722  1  0  -0.03277  0  3.668233  0  0  -0.096315  0  3.937463  0  0  -0.093079  0  3.949778  0  0  -0.071658  -0.098347  0  3.928918  0
C  C38  1  0.34102049  0.65504303  0.93275758  1  0  -0.032148  0  3.636993  0  0  -0.092841  0  3.899842  0  0  -0.08973  0  3.9113  0  0  -0.068326  -0.094873  0  3.891944  0
C  C39  1  0.65897938  0.34496325  0.06724110  1  0  -0.032389  0  3.63684  0  0  -0.092999  0  3.899607  0  0  -0.089881  0  3.911038  0  0  -0.068396  -0.09504  0  3.891748  0
C  C40  1  0.21323368  0.90853050  0.91996631  1  0  -0.162561  0  3.668461  0  0  -0.222088  0  3.924793  0  0  -0.222763  0  3.931974  0  0  -0.070963  -0.221669  0  3.919945  0
C  C41  1  0.78677778  0.09144293  0.08003128  1  0  -0.16238  0  3.668127  0  0  -0.221799  0  3.92426  0  0  -0.222402  0  3.931334  0  0  -0.070902  -0.221393  0  3.919414  0
C  C42  1  0.08557699  0.98239520  0.82619030  1  0  0.655504  0  3.911553  0  0  0.611421  0  4.207143  0  0  0.64422  0  4.202091  0  0  0.200731  0.58915  0  4.209689  0
C  C43  1  0.91448752  0.01756863  0.17379230  1  0  0.654662  0  3.912006  0  0  0.610882  0  4.207217  0  0  0.643653  0  4.202178  0  0  0.200506  0.588613  0  4.209755  0
C  C44  1  0.90350522  0.47032167  0.79521144  1  0  0.667618  0  3.872589  0  0  0.618564  0  4.176149  0  0  0.651891  0  4.170199  0  0  0.204631  0.595866  0  4.179328  0
C  C45  1  0.09642553  0.52972240  0.20477871  1  0  0.667482  0  3.873269  0  0  0.61844  0  4.176857  0  0  0.651767  0  4.170906  0  0  0.204611  0.595736  0  4.180035  0
C  C46  1  0.00049823  0.64192104  0.89329611  1  0  -0.190547  0  3.639385  0  0  -0.248021  0  3.889294  0  0  -0.249279  0  3.895761  0  0  -0.08074  -0.247139  0  3.884852  0
C  C47  1  0.99950819  0.35807583  0.10672204  1  0  -0.190679  0  3.639259  0  0  -0.248241  0  3.889602  0  0  -0.249519  0  3.896144  0  0  -0.080761  -0.247277  0  3.884991  0
N  N48  1  0.39577624  0.57957432  0.73043916  1  0  -0.179666  0  3.318756  0  0  -0.09061  0  3.558905  0  0  -0.106568  0  3.580351  0  0  -0.334964  -0.079339  0  3.543784  0
N  N49  1  0.60419351  0.42044681  0.26954861  1  0  -0.179745  0  3.31877  0  0  -0.09066  0  3.558966  0  0  -0.106616  0  3.580361  0  0  -0.335092  -0.079387  0  3.543856  0
N  N50  1  0.17494505  0.72348925  0.87691752  1  0  -0.185329  0  3.327116  0  0  -0.093044  0  3.566572  0  0  -0.109488  0  3.587915  0  0  -0.33929  -0.081523  0  3.551536  0
N  N51  1  0.82504196  0.27648772  0.12307019  1  0  -0.185293  0  3.326988  0  0  -0.092911  0  3.566313  0  0  -0.109386  0  3.587639  0  0  -0.339373  -0.081386  0  3.551279  0
O  O52  1  0.51457632  0.82077911  0.52816431  1  0  -0.679394  0  1.996385  0  0  -0.615947  0  2.237226  0  0  -0.646851  0  2.230838  0  0  -0.300638  -0.594154  0  2.240931  0
O  O53  1  0.48540758  0.17908089  0.47175830  1  0  -0.679806  0  1.996157  0  0  -0.616238  0  2.237169  0  0  -0.647143  0  2.230752  0  0  -0.300575  -0.594444  0  2.240903  0
O  O54  1  0.27162729  0.80465646  0.60253239  1  0  -0.647894  0  2.088223  0  0  -0.570357  0  2.346213  0  0  -0.602036  0  2.334306  0  0  -0.297216  -0.548167  0  2.353513  0
O  O55  1  0.72839485  0.19528928  0.39743217  1  0  -0.647587  0  2.087676  0  0  -0.570093  0  2.34573  0  0  -0.601775  0  2.333869  0  0  -0.297212  -0.54791  0  2.353025  0
O  O56  1  0.13697235  0.40194150  0.50635813  1  0  -0.604513  0  2.085274  0  0  -0.525158  0  2.344878  0  0  -0.554417  0  2.33342  0  0  -0.2868  -0.505126  0  2.352474  0
O  O57  1  0.86303418  0.59813133  0.49360031  1  0  -0.605197  0  2.085856  0  0  -0.525582  0  2.345595  0  0  -0.554844  0  2.334126  0  0  -0.286947  -0.505511  0  2.35316  0
O  O58  1  0.12796689  0.15270050  0.55563249  1  0  -0.69339  0  2.063599  0  0  -0.611882  0  2.317203  0  0  -0.642591  0  2.305596  0  0  -0.296934  -0.590134  0  2.324418  0
O  O59  1  0.87188744  0.84740106  0.44437044  1  0  -0.69345  0  2.06242  0  0  -0.612007  0  2.316325  0  0  -0.642731  0  2.304766  0  0  -0.296899  -0.590255  0  2.323524  0
O  O60  1  0.94378850  0.44247285  0.69308603  1  0  -0.675252  0  2.078772  0  0  -0.592276  0  2.334694  0  0  -0.625652  0  2.327011  0  0  -0.308092  -0.568761  0  2.339048  0
O  O61  1  0.05612080  0.55755833  0.30689319  1  0  -0.675185  0  2.078642  0  0  -0.592141  0  2.334501  0  0  -0.625516  0  2.326829  0  0  -0.308112  -0.568635  0  2.338857  0
O  O62  1  0.78831456  0.36714136  0.81674388  1  0  -0.625001  0  1.923097  0  0  -0.57862  0  2.15307  0  0  -0.60388  0  2.145864  0  0  -0.314447  -0.560783  0  2.157449  0
O  O63  1  0.21160868  0.63288978  0.18323614  1  0  -0.624753  0  1.923379  0  0  -0.578431  0  2.153422  0  0  -0.60369  0  2.146216  0  0  -0.31441  -0.560607  0  2.157817  0
O  O64  1  0.97414195  0.87518185  0.72246584  1  0  -0.674408  0  2.076707  0  0  -0.597051  0  2.328302  0  0  -0.628345  0  2.319006  0  0  -0.304164  -0.574992  0  2.333716  0
O  O65  1  0.02590565  0.12477997  0.27752883  1  0  -0.674168  0  2.076357  0  0  -0.596802  0  2.327531  0  0  -0.628113  0  2.318284  0  0  -0.304064  -0.574741  0  2.332942  0
O  O66  1  0.09651692  0.13928984  0.85329608  1  0  -0.626311  0  1.897748  0  0  -0.578945  0  2.121787  0  0  -0.604974  0  2.115816  0  0  -0.318743  -0.560728  0  2.125242  0
O  O67  1  0.90358093  0.86068982  0.14664008  1  0  -0.62588  0  1.897693  0  0  -0.578714  0  2.121561  0  0  -0.604716  0  2.115592  0  0  -0.318838  -0.560527  0  2.125057  0
