# generated using pymatgen
data_CaH6C10(NO)4
_symmetry_space_group_name_H-M   'P 1'
_cell_length_a   6.56661087
_cell_length_b   6.56661450
_cell_length_c   13.71431956
_cell_angle_alpha   103.77698809
_cell_angle_beta   103.77594123
_cell_angle_gamma   90.08274771
_symmetry_Int_Tables_number   1
_chemical_formula_structural   CaH6C10(NO)4
_chemical_formula_sum   'Ca2 H12 C20 N8 O8'
_cell_volume   556.77067558
_cell_formula_units_Z   2
loop_
 _symmetry_equiv_pos_site_id
 _symmetry_equiv_pos_as_xyz
  1  'x, y, z'
loop_
 _atom_site_type_symbol
 _atom_site_label
 _atom_site_symmetry_multiplicity
 _atom_site_fract_x
 _atom_site_fract_y
 _atom_site_fract_z
 _atom_site_occupancy
 _atom_site_hle17_bader_spin_density
 _atom_site_hle17_ddec_charge
 _atom_site_hle17_ddec_spin_density
 _atom_site_hle17_ddec_sum_bond_order
 _atom_site_hle17_magmom
 _atom_site_hse06_10hf_bader_spin_density
 _atom_site_hse06_10hf_ddec_charge
 _atom_site_hse06_10hf_ddec_spin_density
 _atom_site_hse06_10hf_ddec_sum_bond_order
 _atom_site_hse06_10hf_magmom
 _atom_site_hse06_bader_spin_density
 _atom_site_hse06_ddec_charge
 _atom_site_hse06_ddec_spin_density
 _atom_site_hse06_ddec_sum_bond_order
 _atom_site_hse06_magmom
 _atom_site_pbe_bader_spin_density
 _atom_site_pbe_cm5_charge
 _atom_site_pbe_ddec_charge
 _atom_site_pbe_ddec_spin_density
 _atom_site_pbe_ddec_sum_bond_order
 _atom_site_pbe_magmom
Ca  Ca0  1  0.87548125  0.12452330  0.74999967  1  0  1.40732  0  1.250184  0  0  1.247457  0  1.619253  0  0  1.29373  0  1.577474  0  0  0.862557  1.212849  0  1.648385  0
Ca  Ca1  1  0.12452494  0.87548099  0.25000230  1  0  1.407362  0  1.250136  0  0  1.247472  0  1.619248  0  0  1.293706  0  1.577548  0  0  0.862564  1.212871  0  1.648368  0
H  H2  1  0.73921710  0.81789942  0.47890932  1  0  0.094175  0  0.943048  0  0  0.100034  0  1.008352  0  0  0.104008  0  1.003539  0  0  0.125816  0.097002  0  1.012089  0
H  H3  1  0.26077783  0.18210015  0.52109155  1  0  0.094178  0  0.943049  0  0  0.100037  0  1.008355  0  0  0.10401  0  1.003543  0  0  0.12581  0.097004  0  1.012092  0
H  H4  1  0.73965361  0.16067526  0.47896780  1  0  0.095389  0  0.943324  0  0  0.101402  0  1.008375  0  0  0.105253  0  1.003757  0  0  0.126742  0.098446  0  1.011994  0
H  H5  1  0.26034093  0.83931803  0.52103231  1  0  0.09534  0  0.943355  0  0  0.101368  0  1.008407  0  0  0.105221  0  1.003787  0  0  0.126722  0.098411  0  1.012032  0
H  H6  1  0.83931923  0.26033639  0.02102723  1  0  0.095312  0  0.94343  0  0  0.101315  0  1.00853  0  0  0.105159  0  1.003907  0  0  0.126731  0.09836  0  1.012145  0
H  H7  1  0.81789449  0.73921113  0.97890484  1  0  0.094163  0  0.94308  0  0  0.10002  0  1.008383  0  0  0.103995  0  1.003568  0  0  0.125809  0.096984  0  1.012125  0
H  H8  1  0.16067550  0.73966004  0.97897618  1  0  0.0953  0  0.943381  0  0  0.101322  0  1.008478  0  0  0.105164  0  1.003854  0  0  0.12674  0.098368  0  1.01209  0
H  H9  1  0.18209819  0.26077745  0.02109160  1  0  0.09419  0  0.943002  0  0  0.100025  0  1.008328  0  0  0.103999  0  1.003516  0  0  0.125798  0.096991  0  1.01207  0
H  H10  1  0.68886269  0.43894428  0.37797966  1  0  0.118996  0  0.921185  0  0  0.132745  0  0.970196  0  0  0.135826  0  0.970455  0  0  0.118628  0.13052  0  0.970291  0
H  H11  1  0.31113048  0.56105216  0.62202357  1  0  0.118983  0  0.921163  0  0  0.132763  0  0.970151  0  0  0.135844  0  0.97041  0  0  0.118635  0.130539  0  0.970245  0
H  H12  1  0.56105303  0.31112764  0.12201933  1  0  0.119023  0  0.921194  0  0  0.132746  0  0.970236  0  0  0.135825  0  0.970499  0  0  0.118637  0.130521  0  0.970331  0
H  H13  1  0.43893680  0.68886565  0.87797879  1  0  0.11897  0  0.92121  0  0  0.132734  0  0.970201  0  0  0.135814  0  0.970462  0  0  0.118613  0.130507  0  0.970297  0
C  C14  1  0.89438610  0.64335998  0.78794742  1  0  0.591404  0  3.962573  0  0  0.542796  0  4.264151  0  0  0.576485  0  4.254213  0  0  0.217667  0.519927  0  4.269944  0
C  C15  1  0.10561734  0.35665060  0.21205277  1  0  0.591383  0  3.962542  0  0  0.542782  0  4.264116  0  0  0.57647  0  4.254171  0  0  0.217698  0.519904  0  4.269904  0
C  C16  1  0.35664974  0.10561513  0.71204771  1  0  0.59158  0  3.962348  0  0  0.542983  0  4.263916  0  0  0.576673  0  4.253975  0  0  0.21775  0.52011  0  4.269708  0
C  C17  1  0.64335978  0.89439231  0.28794916  1  0  0.591434  0  3.962611  0  0  0.54281  0  4.264211  0  0  0.576501  0  4.254265  0  0  0.217668  0.519934  0  4.270002  0
C  C18  1  0.83509904  0.58433785  0.66952500  1  0  0.240932  0  3.763138  0  0  0.229489  0  4.016289  0  0  0.237787  0  4.030677  0  0  0.24944  0.223753  0  4.006693  0
C  C19  1  0.16489460  0.41566644  0.33047481  1  0  0.240938  0  3.763198  0  0  0.229499  0  4.016334  0  0  0.237798  0  4.030714  0  0  0.249451  0.223797  0  4.006692  0
C  C20  1  0.41566539  0.16489159  0.83047110  1  0  0.240901  0  3.763268  0  0  0.22946  0  4.016432  0  0  0.237753  0  4.030828  0  0  0.249439  0.223728  0  4.006831  0
C  C21  1  0.58434307  0.83509857  0.16952732  1  0  0.24073  0  3.763323  0  0  0.229305  0  4.016459  0  0  0.237596  0  4.030851  0  0  0.249368  0.22359  0  4.006837  0
C  C22  1  0.75905238  0.69021633  0.51811787  1  0  0.187265  0  3.654462  0  0  0.154004  0  3.918459  0  0  0.16353  0  3.932073  0  0  0.080512  0.147863  0  3.90947  0
C  C23  1  0.24094392  0.30978010  0.48188135  1  0  0.187299  0  3.654498  0  0  0.154038  0  3.918524  0  0  0.163566  0  3.932136  0  0  0.08053  0.147896  0  3.909539  0
C  C24  1  0.75934283  0.32740179  0.51820075  1  0  0.188223  0  3.653045  0  0  0.154945  0  3.91699  0  0  0.164527  0  3.930622  0  0  0.080571  0.148768  0  3.907979  0
C  C25  1  0.24065946  0.67258993  0.48180153  1  0  0.188272  0  3.653043  0  0  0.15497  0  3.917016  0  0  0.164549  0  3.930647  0  0  0.080569  0.148792  0  3.908007  0
C  C26  1  0.67259211  0.24065704  0.98179602  1  0  0.188406  0  3.653049  0  0  0.155084  0  3.917064  0  0  0.164678  0  3.930684  0  0  0.080605  0.148905  0  3.908056  0
C  C27  1  0.69021251  0.75904971  0.01811521  1  0  0.187211  0  3.654607  0  0  0.153965  0  3.918583  0  0  0.163489  0  3.932198  0  0  0.080485  0.147821  0  3.909602  0
C  C28  1  0.32740300  0.75934568  0.01820669  1  0  0.188442  0  3.652894  0  0  0.155061  0  3.91697  0  0  0.164659  0  3.930584  0  0  0.080593  0.148883  0  3.907965  0
C  C29  1  0.30978094  0.24095144  0.98187984  1  0  0.187326  0  3.654538  0  0  0.154095  0  3.918523  0  0  0.163621  0  3.932141  0  0  0.080558  0.147949  0  3.909541  0
C  C30  1  0.73119489  0.48092571  0.46227625  1  0  -0.157992  0  3.686814  0  0  -0.176608  0  3.95137  0  0  -0.186364  0  3.97293  0  0  -0.075114  -0.170583  0  3.937501  0
C  C31  1  0.26880121  0.51906759  0.53772623  1  0  -0.157972  0  3.686875  0  0  -0.176633  0  3.951494  0  0  -0.18639  0  3.973059  0  0  -0.075104  -0.170607  0  3.937623  0
C  C32  1  0.51906801  0.26879767  0.03772186  1  0  -0.158114  0  3.686887  0  0  -0.176698  0  3.951479  0  0  -0.186454  0  3.973037  0  0  -0.075132  -0.170671  0  3.937609  0
C  C33  1  0.48092164  0.73119248  0.96227660  1  0  -0.157937  0  3.686778  0  0  -0.176532  0  3.951345  0  0  -0.186287  0  3.972903  0  0  -0.075018  -0.170507  0  3.937481  0
N  N34  1  0.81134418  0.74268519  0.62220452  1  0  -0.378262  0  3.120257  0  0  -0.325732  0  3.374519  0  0  -0.342054  0  3.391153  0  0  -0.322216  -0.31448  0  3.363088  0
N  N35  1  0.18866025  0.25731596  0.37779470  1  0  -0.37831  0  3.120298  0  0  -0.325775  0  3.374562  0  0  -0.342089  0  3.39119  0  0  -0.322234  -0.314535  0  3.363119  0
N  N36  1  0.81153904  0.37881964  0.62228566  1  0  -0.381144  0  3.121943  0  0  -0.328649  0  3.376585  0  0  -0.344983  0  3.393167  0  0  -0.324458  -0.31739  0  3.365187  0
N  N37  1  0.18845922  0.62118308  0.37771668  1  0  -0.381187  0  3.121849  0  0  -0.328683  0  3.376505  0  0  -0.345008  0  3.393084  0  0  -0.324475  -0.317436  0  3.365096  0
N  N38  1  0.62118221  0.18845577  0.87771070  1  0  -0.381184  0  3.121988  0  0  -0.328675  0  3.376663  0  0  -0.345006  0  3.393246  0  0  -0.324468  -0.317414  0  3.365261  0
N  N39  1  0.74268467  0.81133958  0.12220202  1  0  -0.378155  0  3.120337  0  0  -0.32563  0  3.374572  0  0  -0.341943  0  3.391209  0  0  -0.322181  -0.314386  0  3.363136  0
N  N40  1  0.37882360  0.81154224  0.12229197  1  0  -0.381177  0  3.121927  0  0  -0.328653  0  3.376602  0  0  -0.344977  0  3.39318  0  0  -0.324477  -0.317402  0  3.365196  0
N  N41  1  0.25731663  0.18866157  0.87779320  1  0  -0.378348  0  3.120366  0  0  -0.325816  0  3.374625  0  0  -0.342137  0  3.391266  0  0  -0.322243  -0.314565  0  3.363191  0
O  O42  1  0.91624412  0.83738639  0.83241515  1  0  -0.651441  0  1.997024  0  0  -0.604082  0  2.242221  0  0  -0.630452  0  2.233698  0  0  -0.35407  -0.585124  0  2.247268  0
O  O43  1  0.08376550  0.16262263  0.16758483  1  0  -0.651455  0  1.996922  0  0  -0.604092  0  2.242104  0  0  -0.630452  0  2.233578  0  0  -0.354085  -0.585147  0  2.247178  0
O  O44  1  0.91706632  0.49374234  0.83245521  1  0  -0.651206  0  1.99934  0  0  -0.604067  0  2.244829  0  0  -0.630423  0  2.236314  0  0  -0.354799  -0.585109  0  2.249829  0
O  O45  1  0.08292291  0.50626665  0.16754463  1  0  -0.651147  0  1.999288  0  0  -0.603987  0  2.244729  0  0  -0.63035  0  2.236248  0  0  -0.354805  -0.58503  0  2.249733  0
O  O46  1  0.50627546  0.08292954  0.66754241  1  0  -0.651212  0  1.999129  0  0  -0.604084  0  2.244628  0  0  -0.630437  0  2.236111  0  0  -0.354832  -0.585152  0  2.249694  0
O  O47  1  0.83738441  0.91624738  0.33241561  1  0  -0.651466  0  1.997039  0  0  -0.604099  0  2.242244  0  0  -0.630465  0  2.233723  0  0  -0.354054  -0.585147  0  2.247305  0
O  O48  1  0.49374445  0.91706848  0.33245895  1  0  -0.651198  0  1.999373  0  0  -0.604047  0  2.244854  0  0  -0.630407  0  2.236365  0  0  -0.354825  -0.585089  0  2.249856  0
O  O49  1  0.16262588  0.08377263  0.66758205  1  0  -0.651542  0  1.996982  0  0  -0.604184  0  2.242173  0  0  -0.630556  0  2.233649  0  0  -0.354114  -0.585222  0  2.247219  0
