# generated using pymatgen
data_CoH24C22(NO3)2
_symmetry_space_group_name_H-M   'P 1'
_cell_length_a   5.50576718
_cell_length_b   8.69454875
_cell_length_c   10.69317144
_cell_angle_alpha   94.33110991
_cell_angle_beta   94.99819232
_cell_angle_gamma   91.53312600
_symmetry_Int_Tables_number   1
_chemical_formula_structural   CoH24C22(NO3)2
_chemical_formula_sum   'Co1 H24 C22 N2 O6'
_cell_volume   508.19475030
_cell_formula_units_Z   1
loop_
 _symmetry_equiv_pos_site_id
 _symmetry_equiv_pos_as_xyz
  1  'x, y, z'
loop_
 _atom_site_type_symbol
 _atom_site_label
 _atom_site_symmetry_multiplicity
 _atom_site_fract_x
 _atom_site_fract_y
 _atom_site_fract_z
 _atom_site_occupancy
 _atom_site_pbe_cm5_charge
 _atom_site_pbe_ddec_charge
 _atom_site_pbe_ddec_spin_density
 _atom_site_pbe_ddec_sum_bond_order
 _atom_site_pbe_magmom
Co  Co0  1  0.49999942  0.50000044  0.00000136  1  0.616775  0.70477  1.02738  2.767901  0.958
H  H1  1  0.12423770  0.71968651  0.06726742  1  0.119793  0.099887  -0.000368  1.044781  0.0
H  H2  1  0.87576786  0.28031957  0.93273600  1  0.11976  0.099819  -0.000369  1.044789  0.0
H  H3  1  0.08404085  0.92123962  0.23777764  1  0.108278  0.117462  -8.5e-05  1.006081  0.0
H  H4  1  0.91596443  0.07876071  0.76222735  1  0.108289  0.11746  -8.5e-05  1.00606  0.0
H  H5  1  0.79444376  0.80281953  0.40052923  1  0.102042  0.106155  -3.2e-05  1.041077  0.0
H  H6  1  0.20555623  0.19717839  0.59947064  1  0.102057  0.106143  -3.2e-05  1.04109  0.0
H  H7  1  0.81177659  0.61227624  0.22028360  1  0.116892  0.086038  -0.000443  1.052992  0.0
H  H8  1  0.18821790  0.38772047  0.77971588  1  0.116916  0.086079  -0.000443  1.053019  0.0
H  H9  1  0.22107069  0.98432954  0.47345869  1  0.093465  0.089808  -0.00022  1.00677  0.0
H  H10  1  0.77894368  0.01566506  0.52654373  1  0.093437  0.08972  -0.00022  1.006837  0.0
H  H11  1  0.40744804  0.11505095  0.40437898  1  0.101165  0.112227  -0.000433  1.009672  0.0
H  H12  1  0.59255557  0.88494933  0.59562309  1  0.101122  0.112172  -0.000433  1.009667  0.0
H  H13  1  0.84214205  0.13877428  0.34801195  1  0.094596  0.112931  0.000307  1.018535  0.0
H  H14  1  0.15785807  0.86122593  0.65198711  1  0.094599  0.11293  0.000307  1.018556  0.0
H  H15  1  0.07738015  0.21559792  0.26361979  1  0.105159  0.134111  6.7e-05  1.006685  0.0
H  H16  1  0.92261994  0.78439996  0.73637821  1  0.105172  0.134135  6.7e-05  1.00671  0.0
H  H17  1  0.63034134  0.33140659  0.49869946  1  0.094504  0.09638  -7e-05  1.048214  0.0
H  H18  1  0.36965378  0.66860043  0.50129497  1  0.094528  0.096411  -7e-05  1.048156  0.0
H  H19  1  0.29537245  0.45077597  0.33970888  1  0.098658  0.102601  -4.2e-05  1.032911  0.0
H  H20  1  0.70462433  0.54922761  0.66028640  1  0.098677  0.102598  -4.2e-05  1.032921  0.0
H  H21  1  0.32682497  0.30324969  0.11373692  1  0.283631  0.36364  -3.4e-05  0.99544  0.0
H  H22  1  0.67317304  0.69674476  0.88626359  1  0.283619  0.363646  -3.4e-05  0.995441  0.0
H  H23  1  0.08337383  0.40188225  0.08813830  1  0.29791  0.383587  0.000116  0.943638  0.0
H  H24  1  0.91661859  0.59811334  0.91186474  1  0.297899  0.383591  0.000116  0.943664  0.0
C  C25  1  0.26997709  0.74203956  0.14231745  1  0.04286  0.080836  -0.006985  3.912382  -0.004
C  C26  1  0.73002107  0.25796299  0.85768535  1  0.042903  0.080937  -0.006986  3.912406  -0.004
C  C27  1  0.24949775  0.85517841  0.23886614  1  -0.084243  -0.175521  0.000202  3.942399  0.001
C  C28  1  0.75050608  0.14482879  0.76113631  1  -0.084251  -0.175514  0.000203  3.942357  0.001
C  C29  1  0.43554812  0.88215425  0.33674770  1  0.010438  0.162835  -0.008835  3.951411  -0.005
C  C30  1  0.56445733  0.11784487  0.66325349  1  0.010445  0.162788  -0.008837  3.951313  -0.005
C  C31  1  0.64131951  0.79249960  0.32841527  1  -0.091003  -0.195683  0.000128  3.96165  0.001
C  C32  1  0.35867845  0.20749486  0.67158617  1  -0.091065  -0.19567  0.000128  3.961578  0.001
C  C33  1  0.65315854  0.68284860  0.22775459  1  0.044563  0.09253  -0.008193  3.913991  -0.005
C  C34  1  0.34683597  0.31715392  0.77224800  1  0.044563  0.09251  -0.008196  3.913722  -0.005
C  C35  1  0.40581448  0.00110403  0.44349236  1  -0.159009  -0.20711  -0.000278  3.95828  0.0
C  C36  1  0.59419463  0.99889396  0.55650805  1  -0.158992  -0.20696  -0.000278  3.958175  0.0
C  C37  1  0.71315355  0.28570125  0.20681154  1  0.217227  0.638702  -0.000569  4.115396  0.0
C  C38  1  0.28684662  0.71429429  0.79318354  1  0.217175  0.638563  -0.000568  4.115473  0.0
C  C39  1  0.90896365  0.24237865  0.30739405  1  -0.166163  -0.361661  0.002196  3.932763  0.003
C  C40  1  0.09104540  0.75762401  0.69261034  1  -0.166133  -0.361659  0.002195  3.932757  0.003
C  C41  1  0.95831102  0.37407903  0.40779551  1  -0.016092  0.125178  0.000132  3.986799  0.0
C  C42  1  0.04168380  0.62592341  0.59220148  1  -0.016094  0.125187  0.000133  3.986605  0.0
C  C43  1  0.79453119  0.40419347  0.49921122  1  -0.099455  -0.143443  6.9e-05  3.987235  0.0
C  C44  1  0.20546369  0.59580779  0.50078384  1  -0.099445  -0.143482  6.9e-05  3.987117  0.0
C  C45  1  0.16461877  0.47241105  0.40954755  1  -0.097602  -0.14013  0.000232  3.982887  0.0
C  C46  1  0.83537106  0.52759354  0.59044177  1  -0.097654  -0.140177  0.000232  3.982909  0.0
N  N47  1  0.46950512  0.65485489  0.13590020  1  -0.343488  -0.191559  -0.013409  3.63104  -0.009
N  N48  1  0.53049502  0.34515113  0.86410196  1  -0.343494  -0.191637  -0.013409  3.631079  -0.009
O  O49  1  0.49802000  0.23156122  0.21110203  1  -0.316502  -0.546534  -0.000659  2.185405  0.0
O  O50  1  0.50198534  0.76842979  0.78889593  1  -0.316486  -0.546459  -0.000659  2.185361  0.0
O  O51  1  0.77688376  0.37875349  0.12741505  1  -0.30092  -0.568063  0.024005  2.325781  0.04
O  O52  1  0.22312019  0.62124786  0.87258148  1  -0.300909  -0.567982  0.024004  2.325727  0.04
O  O53  1  0.23151755  0.36629861  0.04887391  1  -0.565077  -0.727556  -0.000485  2.274793  0.0
O  O54  1  0.76847667  0.63369933  0.95113123  1  -0.565043  -0.727566  -0.000485  2.274822  0.0
