# generated using pymatgen
data_Cd2H26C24N6O11
_symmetry_space_group_name_H-M   'P 1'
_cell_length_a   11.15328632
_cell_length_b   14.09364144
_cell_length_c   20.88454225
_cell_angle_alpha   107.79998425
_cell_angle_beta   89.99992211
_cell_angle_gamma   90.00013235
_symmetry_Int_Tables_number   1
_chemical_formula_structural   Cd2H26C24N6O11
_chemical_formula_sum   'Cd8 H104 C96 N24 O44'
_cell_volume   3125.69818710
_cell_formula_units_Z   4
loop_
 _symmetry_equiv_pos_site_id
 _symmetry_equiv_pos_as_xyz
  1  'x, y, z'
loop_
 _atom_site_type_symbol
 _atom_site_label
 _atom_site_symmetry_multiplicity
 _atom_site_fract_x
 _atom_site_fract_y
 _atom_site_fract_z
 _atom_site_occupancy
 _atom_site_pbe_bader_charge
 _atom_site_pbe_bader_spin_density
 _atom_site_pbe_cm5_charge
 _atom_site_pbe_ddec_charge
 _atom_site_pbe_ddec_spin_density
 _atom_site_pbe_ddec_sum_bond_order
 _atom_site_pbe_magmom
Cd  Cd0  1  0.00000018  0.99999955  0.99999726  1  1.328799  0  0.803766  1.009475  0  2.132978  0
Cd  Cd1  1  0.49999516  0.99999890  0.50000178  1  1.328833  0  0.803749  1.009465  0  2.132839  0
Cd  Cd2  1  0.37663371  0.87723324  0.75016328  1  1.273188  0  0.762887  0.902496  0  2.09458  0
Cd  Cd3  1  0.87663860  0.12276913  0.74983693  1  1.273158  0  0.762892  0.902551  0  2.094398  0
Cd  Cd4  1  0.62335873  0.12275966  0.24983750  1  1.273266  0  0.762917  0.902558  0  2.09442  0
Cd  Cd5  1  0.12335743  0.87723572  0.25016154  1  1.273174  0  0.762899  0.902576  0  2.094367  0
Cd  Cd6  1  0.50000202  0.99999953  0.99999915  1  1.343604  0  0.761948  1.097463  0  2.080627  0
Cd  Cd7  1  0.99999846  0.99999858  0.49999913  1  1.343562  0  0.761947  1.097484  0  2.080555  0
H  H8  1  0.85715719  0.66691856  0.09166014  1  0.111316  0  0.11493  0.105392  0  1.007551  0
H  H9  1  0.35716644  0.33308837  0.40834448  1  0.111485  0  0.114909  0.105366  0  1.007485  0
H  H10  1  0.14283794  0.33309149  0.90834420  1  0.111533  0  0.114883  0.105336  0  1.007566  0
H  H11  1  0.64283945  0.66691199  0.59165642  1  0.111461  0  0.114904  0.105357  0  1.007477  0
H  H12  1  0.88866356  0.57257040  0.01428123  1  0.033238  0  0.106225  0.076282  0  1.017656  0
H  H13  1  0.38865944  0.42743210  0.48572771  1  0.033201  0  0.106209  0.076212  0  1.017607  0
H  H14  1  0.11134233  0.42743590  0.98572760  1  0.033183  0  0.106184  0.076253  0  1.017486  0
H  H15  1  0.61134107  0.57256752  0.51427446  1  0.033167  0  0.106209  0.076245  0  1.017595  0
H  H16  1  0.67690143  0.57923587  0.97686694  1  -7e-06  0  0.092239  0.085933  0  0.98856  0
H  H17  1  0.17689669  0.42076021  0.52313307  1  -3.9e-05  0  0.092224  0.085934  0  0.98854  0
H  H18  1  0.32310177  0.42076523  0.02313555  1  -0.000115  0  0.092294  0.08605  0  0.988659  0
H  H19  1  0.82310651  0.57923867  0.47686608  1  -6.1e-05  0  0.092232  0.08594  0  0.988449  0
H  H20  1  0.68781415  0.54249084  0.05096244  1  0.015584  0  0.090656  0.087144  0  0.99839  0
H  H21  1  0.18781380  0.45751060  0.44904069  1  0.015609  0  0.090692  0.087168  0  0.998365  0
H  H22  1  0.31218905  0.45751175  0.94904132  1  0.015591  0  0.090727  0.087253  0  0.998386  0
H  H23  1  0.81218851  0.54248530  0.55095641  1  0.015573  0  0.090694  0.087198  0  0.998373  0
H  H24  1  0.63766153  0.75690953  0.05037385  1  0.075318  0  0.106057  0.113314  0  0.985816  0
H  H25  1  0.13766324  0.24308961  0.44962405  1  0.075137  0  0.106056  0.11329  0  0.985845  0
H  H26  1  0.36234526  0.24309232  0.94962832  1  0.075285  0  0.106051  0.113276  0  0.985843  0
H  H27  1  0.86233548  0.75690777  0.55037671  1  0.075167  0  0.106071  0.113289  0  0.985884  0
H  H28  1  0.64201794  0.71547582  0.12201280  1  0.041359  0  0.093831  0.088807  0  1.034146  0
H  H29  1  0.14201816  0.28452557  0.37798603  1  0.041285  0  0.093823  0.088778  0  1.03419  0
H  H30  1  0.35798974  0.28452827  0.87798982  1  0.041391  0  0.093813  0.088785  0  1.034186  0
H  H31  1  0.85798324  0.71547107  0.62201457  1  0.041323  0  0.093798  0.088787  0  1.03415  0
H  H32  1  0.45655070  0.66034508  0.00814599  1  0.082833  0  0.119113  0.107428  0  0.951193  0
H  H33  1  0.95654933  0.33965086  0.49185053  1  0.082403  0  0.119075  0.107366  0  0.951263  0
H  H34  1  0.54345878  0.33966349  0.99185374  1  0.082694  0  0.119133  0.107444  0  0.951177  0
H  H35  1  0.04345119  0.66034578  0.50814672  1  0.082348  0  0.119109  0.107417  0  0.951217  0
H  H36  1  0.46595493  0.59848975  0.07111716  1  0.057429  0  0.114399  0.089492  0  0.972191  0
H  H37  1  0.96595659  0.40150844  0.42888126  1  0.057445  0  0.1144  0.089447  0  0.972277  0
H  H38  1  0.53404827  0.40151138  0.92888006  1  0.05735  0  0.114436  0.089537  0  0.972197  0
H  H39  1  0.03404661  0.59848969  0.57111726  1  0.057426  0  0.114414  0.089471  0  0.972199  0
H  H40  1  0.88856504  0.78869595  0.88089866  1  0.136789  0  0.129778  0.096654  0  1.016115  0
H  H41  1  0.38856571  0.21129973  0.61910016  1  0.136769  0  0.129818  0.096755  0  1.016081  0
H  H42  1  0.11143727  0.21129623  0.11909718  1  0.136853  0  0.129818  0.096763  0  1.016052  0
H  H43  1  0.61144377  0.78870883  0.38090388  1  0.136838  0  0.129822  0.096747  0  1.016104  0
H  H44  1  0.90565437  0.84100679  0.09037729  1  0.207036  0  0.146879  0.131031  0  0.988921  0
H  H45  1  0.40564069  0.15899503  0.40962145  1  0.207038  0  0.146871  0.131089  0  0.988875  0
H  H46  1  0.09435421  0.15900254  0.90961925  1  0.207006  0  0.146857  0.131019  0  0.98888  0
H  H47  1  0.59435175  0.84100757  0.59038182  1  0.206934  0  0.146835  0.130994  0  0.988897  0
H  H48  1  0.36299464  0.97122977  0.18815327  1  0.169903  0  0.137261  0.115423  0  1.03703  0
H  H49  1  0.86299103  0.02876750  0.31184599  1  0.169862  0  0.137236  0.115378  0  1.037074  0
H  H50  1  0.63700946  0.02877135  0.81184587  1  0.169938  0  0.137247  0.115395  0  1.036955  0
H  H51  1  0.13700859  0.97122913  0.68815653  1  0.169928  0  0.137244  0.115418  0  1.03697  0
H  H52  1  0.26846607  0.66763431  0.13420663  1  0.158121  0  0.154607  0.130868  0  0.951068  0
H  H53  1  0.76847128  0.33236431  0.36578819  1  0.158104  0  0.15459  0.130885  0  0.951019  0
H  H54  1  0.73153892  0.33236680  0.86579443  1  0.158182  0  0.154648  0.130958  0  0.951081  0
H  H55  1  0.23153282  0.66763235  0.63420523  1  0.158333  0  0.154612  0.130934  0  0.951036  0
H  H56  1  0.19871436  0.58793021  0.79754683  1  0.064677  0  0.10156  0.097976  0  1.023176  0
H  H57  1  0.69872112  0.41206590  0.70245318  1  0.064701  0  0.101566  0.098043  0  1.023092  0
H  H58  1  0.80127898  0.41205447  0.20245895  1  0.064497  0  0.101583  0.098006  0  1.023213  0
H  H59  1  0.30127581  0.58794418  0.29754255  1  0.064545  0  0.101584  0.098025  0  1.023157  0
H  H60  1  0.10451051  0.49365505  0.86853539  1  0.063302  0  0.100597  0.097849  0  1.016449  0
H  H61  1  0.60451503  0.50634536  0.63147180  1  0.06249  0  0.100589  0.097874  0  1.016444  0
H  H62  1  0.89549090  0.50633260  0.13147532  1  0.062556  0  0.10061  0.097947  0  1.016471  0
H  H63  1  0.39548548  0.49366547  0.36852361  1  0.062527  0  0.100623  0.097934  0  1.016467  0
H  H64  1  0.08121330  0.57682140  0.99196208  1  0.045338  0  0.09551  0.083875  0  1.030952  0
H  H65  1  0.58121431  0.42318644  0.50804092  1  0.045305  0  0.095498  0.083847  0  1.030962  0
H  H66  1  0.91879438  0.42318190  0.00804996  1  0.045561  0  0.095551  0.084015  0  1.030913  0
H  H67  1  0.41879875  0.57681248  0.49194914  1  0.045503  0  0.095527  0.083967  0  1.030902  0
H  H68  1  0.14746341  0.75187698  0.04248662  1  0.070924  0  0.100074  0.100922  0  1.020988  0
H  H69  1  0.64745200  0.24812963  0.45751378  1  0.070954  0  0.10008  0.100885  0  1.021029  0
H  H70  1  0.85254068  0.24812337  0.95751858  1  0.071118  0  0.10005  0.100909  0  1.021077  0
H  H71  1  0.35254493  0.75187299  0.54248376  1  0.071046  0  0.100047  0.100908  0  1.020991  0
H  H72  1  0.14888572  0.37622350  0.77075156  1  0.08581  0  0.106889  0.109077  0  0.996914  0
H  H73  1  0.64887330  0.62378070  0.72925686  1  0.085724  0  0.106911  0.109093  0  0.996905  0
H  H74  1  0.85112196  0.62377983  0.22925282  1  0.085719  0  0.106925  0.109118  0  0.996858  0
H  H75  1  0.35112631  0.37621817  0.27074468  1  0.085733  0  0.106922  0.109115  0  0.996948  0
H  H76  1  0.34175188  0.46487987  0.76729976  1  0.08369  0  0.103781  0.10284  0  1.007326  0
H  H77  1  0.84174099  0.53512762  0.73271256  1  0.083824  0  0.103799  0.102825  0  1.007265  0
H  H78  1  0.65825759  0.53511306  0.23269528  1  0.083449  0  0.103785  0.102831  0  1.007453  0
H  H79  1  0.15826221  0.46487869  0.26729484  1  0.083596  0  0.103781  0.102786  0  1.007436  0
H  H80  1  0.53405024  0.37051669  0.75172146  1  0.090485  0  0.098451  0.095532  0  1.02347  0
H  H81  1  0.03403477  0.62948659  0.74828399  1  0.090717  0  0.098369  0.095418  0  1.023636  0
H  H82  1  0.46595296  0.62947026  0.24827665  1  0.090681  0  0.098371  0.095482  0  1.023449  0
H  H83  1  0.96596305  0.37052644  0.25172050  1  0.090567  0  0.098358  0.095479  0  1.023596  0
H  H84  1  0.53247826  0.18958237  0.73979802  1  0.064952  0  0.104453  0.104142  0  1.028005  0
H  H85  1  0.03246419  0.81042168  0.76020135  1  0.06526  0  0.104482  0.104156  0  1.028023  0
H  H86  1  0.46751508  0.81040308  0.26020264  1  0.064978  0  0.104463  0.104182  0  1.027834  0
H  H87  1  0.96752198  0.18959137  0.23979739  1  0.065027  0  0.104433  0.104109  0  1.027941  0
H  H88  1  0.00317517  0.96074270  0.84860884  1  0.671859  0  0.284783  0.395855  0  0.94168  0
H  H89  1  0.50318006  0.03925906  0.65139008  1  0.671958  0  0.284812  0.395922  0  0.941587  0
H  H90  1  0.99681907  0.03926142  0.15138661  1  0.672042  0  0.284836  0.396007  0  0.941488  0
H  H91  1  0.49680969  0.96073907  0.34860987  1  0.671947  0  0.284833  0.39603  0  0.941463  0
H  H92  1  0.12736000  0.92229336  0.87294872  1  0.643254  0  0.28665  0.388638  0  0.94916  0
H  H93  1  0.62736418  0.07770414  0.62704732  1  0.643245  0  0.286682  0.388668  0  0.949109  0
H  H94  1  0.87263154  0.07770254  0.12704838  1  0.6432  0  0.28668  0.388643  0  0.949124  0
H  H95  1  0.37263006  0.92229250  0.37295280  1  0.643129  0  0.286673  0.38869  0  0.949046  0
H  H96  1  0.33609587  0.99847323  0.89383768  1  0.616138  0  0.296392  0.393586  0  0.934574  0
H  H97  1  0.83609271  0.00152610  0.60616097  1  0.616108  0  0.296361  0.393518  0  0.934657  0
H  H98  1  0.66390553  0.00152789  0.10616002  1  0.616115  0  0.296404  0.393525  0  0.934659  0
H  H99  1  0.16390332  0.99847054  0.39384011  1  0.616048  0  0.296397  0.393537  0  0.934637  0
H  H100  1  0.42835164  0.08838258  0.90178492  1  0.626771  0  0.285602  0.341828  0  1.020967  0
H  H101  1  0.92835027  0.91161839  0.59821401  1  0.626568  0  0.285516  0.341616  0  1.021335  0
H  H102  1  0.57164887  0.91161855  0.09821039  1  0.625868  0  0.285548  0.341644  0  1.021267  0
H  H103  1  0.07164755  0.08837974  0.40178642  1  0.62658  0  0.285524  0.341636  0  1.021277  0
H  H104  1  0.62429153  0.89933129  0.87322964  1  0.640764  0  0.280304  0.377741  0  0.963317  0
H  H105  1  0.12428558  0.10066844  0.62676590  1  0.6408  0  0.280337  0.377801  0  0.963178  0
H  H106  1  0.37571346  0.10067059  0.12676535  1  0.640861  0  0.280286  0.377694  0  0.963328  0
H  H107  1  0.87570776  0.89932895  0.37323246  1  0.640846  0  0.28031  0.377732  0  0.963328  0
H  H108  1  0.70839052  0.96012544  0.93532852  1  0.643097  0  0.279861  0.369853  0  0.975497  0
H  H109  1  0.20838634  0.03987443  0.56466939  1  0.642948  0  0.279842  0.369881  0  0.975474  0
H  H110  1  0.29161896  0.03987569  0.06466727  1  0.643005  0  0.279827  0.369826  0  0.975575  0
H  H111  1  0.79160879  0.96012147  0.43533010  1  0.64312  0  0.279799  0.369787  0  0.975591  0
C  C112  1  0.83090935  0.63643706  0.03854760  1  0.318154  0  -0.048189  -0.090713  0  3.88743  0
C  C113  1  0.33090958  0.36356610  0.46145674  1  0.318053  0  -0.048108  -0.090525  0  3.887206  0
C  C114  1  0.16909475  0.36356850  0.96145725  1  0.318038  0  -0.04807  -0.09053  0  3.887163  0
C  C115  1  0.66909272  0.63643575  0.53854495  1  0.318113  0  -0.048131  -0.090598  0  3.887124  0
C  C116  1  0.69916787  0.60563776  0.03084730  1  0.02489  0  -0.161382  -0.162947  0  3.955282  0
C  C117  1  0.19916728  0.39436297  0.46915375  1  0.024896  0  -0.161414  -0.163  0  3.955155  0
C  C118  1  0.30083802  0.39436409  0.96915534  1  0.025204  0  -0.161544  -0.163319  0  3.955563  0
C  C119  1  0.80083681  0.60563516  0.53084668  1  0.024908  0  -0.161431  -0.163037  0  3.955052  0
C  C120  1  0.61951250  0.69264573  0.06821371  1  0.001353  0  -0.165576  -0.174103  0  3.93818  0
C  C121  1  0.11951265  0.30735264  0.43178356  1  0.001548  0  -0.165599  -0.174109  0  3.938115  0
C  C122  1  0.38049070  0.30735761  0.93178829  1  0.001147  0  -0.165517  -0.173913  0  3.938202  0
C  C123  1  0.88048786  0.69264400  0.56821560  1  0.001553  0  -0.165569  -0.174072  0  3.938173  0
C  C124  1  0.48664581  0.66790532  0.05969315  1  0.285594  0  -0.040022  -0.07935  0  3.884055  0
C  C125  1  0.98664813  0.33209365  0.44030637  1  0.286076  0  -0.03996  -0.079172  0  3.884028  0
C  C126  1  0.51335829  0.33210026  0.94030979  1  0.285641  0  -0.040109  -0.079484  0  3.88404  0
C  C127  1  0.01335507  0.66790523  0.55969326  1  0.28608  0  -0.039999  -0.079258  0  3.884013  0
C  C128  1  0.88293433  0.77802241  0.93002894  1  0.99959  0  0.149418  0.164738  0  3.989245  0
C  C129  1  0.38292978  0.22197475  0.56997163  1  0.999565  0  0.149378  0.16464  0  3.989282  0
C  C130  1  0.11707335  0.22197349  0.06996864  1  0.999695  0  0.149466  0.164665  0  3.989249  0
C  C131  1  0.61706894  0.77802859  0.43003228  1  0.999663  0  0.149502  0.164731  0  3.989436  0
C  C132  1  0.89330825  0.80774466  0.03655801  1  0.994489  0  0.170128  0.096832  0  3.880412  0
C  C133  1  0.39330170  0.19225341  0.46344092  1  0.994644  0  0.170131  0.096801  0  3.880386  0
C  C134  1  0.10669495  0.19225721  0.96343889  1  0.994506  0  0.170205  0.096949  0  3.880199  0
C  C135  1  0.60669522  0.80774620  0.53656222  1  0.994732  0  0.170238  0.097007  0  3.880207  0
C  C136  1  0.36221541  0.89108953  0.16418058  1  1.004796  0  0.155911  0.148112  0  3.944853  0
C  C137  1  0.86221376  0.10890773  0.33581868  1  1.004834  0  0.15591  0.148112  0  3.944922  0
C  C138  1  0.63778779  0.10891158  0.83581951  1  1.004675  0  0.155907  0.148113  0  3.944854  0
C  C139  1  0.13778854  0.89108891  0.66418096  1  1.004672  0  0.155889  0.148053  0  3.944894  0
C  C140  1  0.31279302  0.73754663  0.13771169  1  0.992347  0  0.168661  0.073522  0  3.932584  0
C  C141  1  0.81279265  0.26245057  0.36228471  1  0.992164  0  0.168699  0.073546  0  3.932746  0
C  C142  1  0.68721198  0.26245374  0.86228777  1  0.992228  0  0.16857  0.073312  0  3.932695  0
C  C143  1  0.18720786  0.73754533  0.63771143  1  0.992095  0  0.168631  0.073407  0  3.932521  0
C  C144  1  0.21037736  0.76773181  0.94904534  1  -0.103359  0  -0.004531  -0.024985  0  3.923231  0
C  C145  1  0.71037860  0.23226881  0.55095129  1  -0.103238  0  -0.004515  -0.025005  0  3.923334  0
C  C146  1  0.78962405  0.23226035  0.05095625  1  -0.103282  0  -0.004566  -0.02498  0  3.923319  0
C  C147  1  0.28962191  0.76773679  0.44904495  1  -0.103252  0  -0.004564  -0.024915  0  3.923281  0
C  C148  1  0.22436519  0.72140591  0.87942941  1  0.018701  0  -0.011522  -0.04737  0  3.925705  0
C  C149  1  0.72437087  0.27859324  0.62056642  1  0.019023  0  -0.011574  -0.047274  0  3.925594  0
C  C150  1  0.77563263  0.27858177  0.12057268  1  0.017935  0  -0.011593  -0.047329  0  3.925532  0
C  C151  1  0.27563323  0.72141534  0.37942996  1  0.017894  0  -0.011502  -0.047303  0  3.925479  0
C  C152  1  0.18607950  0.62267708  0.85139650  1  -0.033211  0  -0.085711  -0.100309  0  3.998231  0
C  C153  1  0.68608181  0.37732051  0.64860190  1  -0.03331  0  -0.085655  -0.100354  0  3.998078  0
C  C154  1  0.81391832  0.37731357  0.14860860  1  -0.031814  0  -0.085708  -0.100368  0  3.998569  0
C  C155  1  0.31391960  0.62268659  0.35139369  1  -0.031846  0  -0.085746  -0.100401  0  3.998598  0
C  C156  1  0.13437175  0.57026624  0.89110903  1  0.023958  0  -0.096263  -0.094732  0  4.030391  0
C  C157  1  0.63436983  0.42973647  0.60889335  1  0.025282  0  -0.096337  -0.09491  0  4.030515  0
C  C158  1  0.86563056  0.42973036  0.10890066  1  0.02465  0  -0.096184  -0.094767  0  4.030513  0
C  C159  1  0.36563248  0.57026766  0.39109875  1  0.024605  0  -0.096196  -0.094727  0  4.030684  0
C  C160  1  0.12081967  0.61684678  0.96004049  1  -0.126712  0  -0.094249  -0.078599  0  4.047297  0
C  C161  1  0.62081599  0.38315665  0.53996252  1  -0.072438  0  -0.094215  -0.078523  0  4.047302  0
C  C162  1  0.87918174  0.38315131  0.03996855  1  -0.1278  0  -0.094409  -0.078931  0  4.047226  0
C  C163  1  0.37918631  0.61684524  0.46002959  1  -0.072141  0  -0.094387  -0.078873  0  4.04737  0
C  C164  1  0.15788419  0.71505193  0.98870769  1  0.00905  0  -0.096227  -0.128762  0  4.01446  0
C  C165  1  0.65787940  0.28494933  0.51129341  1  -0.046041  0  -0.096212  -0.128685  0  4.014427  0
C  C166  1  0.84211722  0.28494544  0.01129785  1  0.009543  0  -0.096193  -0.128683  0  4.014445  0
C  C167  1  0.34212021  0.71505329  0.48870221  1  -0.046028  0  -0.096186  -0.128728  0  4.014452  0
C  C168  1  0.26658421  0.86668951  0.98507190  1  1.560582  0  0.209796  0.594862  0  4.22047  0
C  C169  1  0.76658167  0.13331046  0.51492455  1  1.560629  0  0.209899  0.59512  0  4.220349  0
C  C170  1  0.73341719  0.13330712  0.01492966  1  1.560517  0  0.209939  0.595071  0  4.220738  0
C  C171  1  0.23341078  0.86668992  0.48507252  1  1.560441  0  0.209844  0.595046  0  4.220684  0
C  C172  1  0.27902096  0.77382984  0.83382958  1  1.545072  0  0.201147  0.578108  0  4.188402  0
C  C173  1  0.77902816  0.22616939  0.66616766  1  1.545144  0  0.201133  0.577914  0  4.18841  0
C  C174  1  0.72097058  0.22615784  0.16617155  1  1.545696  0  0.20109  0.577925  0  4.188302  0
C  C175  1  0.22097145  0.77383696  0.33382682  1  1.545645  0  0.201031  0.577919  0  4.188319  0
C  C176  1  0.34130857  0.18147642  0.75009690  1  -0.024543  0  -0.013331  -0.057775  0  3.953486  0
C  C177  1  0.84129846  0.81852516  0.74990174  1  -0.024221  0  -0.013394  -0.057767  0  3.953356  0
C  C178  1  0.65868835  0.81851576  0.24989894  1  -0.025717  0  -0.0134  -0.057882  0  3.953644  0
C  C179  1  0.15869219  0.18148044  0.25009737  1  -0.025645  0  -0.013327  -0.057811  0  3.953343  0
C  C180  1  0.23261780  0.23486590  0.75949496  1  -0.030307  0  -0.003323  -0.030998  0  3.924067  0
C  C181  1  0.73260398  0.76513846  0.74050578  1  -0.03114  0  -0.003354  -0.030936  0  3.923875  0
C  C182  1  0.76737553  0.76513222  0.24050691  1  -0.03052  0  -0.003245  -0.030885  0  3.923979  0
C  C183  1  0.26738667  0.23486415  0.25949080  1  -0.030683  0  -0.003288  -0.030811  0  3.92382  0
C  C184  1  0.23407940  0.33650470  0.76504425  1  -0.024749  0  -0.084431  -0.108061  0  3.969835  0
C  C185  1  0.73406708  0.66349891  0.73496064  1  -0.024453  0  -0.084443  -0.108126  0  3.969835  0
C  C186  1  0.76592111  0.66349342  0.23495714  1  -0.024122  0  -0.084462  -0.108122  0  3.969877  0
C  C187  1  0.26592984  0.33650295  0.26504009  1  -0.024447  0  -0.084479  -0.108172  0  3.969922  0
C  C188  1  0.34173653  0.38569505  0.76263026  1  -0.105913  0  -0.085969  -0.069427  0  4.000809  0
C  C189  1  0.84172406  0.61431097  0.73737697  1  -0.105951  0  -0.086012  -0.069434  0  4.000632  0
C  C190  1  0.65827026  0.61429563  0.23736766  1  -0.105939  0  -0.086056  -0.069512  0  4.00092  0
C  C191  1  0.15827465  0.38569907  0.26262882  1  -0.106352  0  -0.086033  -0.069439  0  4.00092  0
C  C192  1  0.44954864  0.33294351  0.75394848  1  -0.043499  0  -0.094588  -0.091358  0  4.021321  0
C  C193  1  0.94953720  0.66706344  0.74605647  1  -0.043761  0  -0.0944  -0.091143  0  4.021214  0
C  C194  1  0.55045636  0.66704643  0.24604785  1  -0.0442  0  -0.094411  -0.091165  0  4.021196  0
C  C195  1  0.05046152  0.33294810  0.25394915  1  -0.043446  0  -0.094486  -0.091364  0  4.021445  0
C  C196  1  0.44885901  0.23140048  0.74692421  1  -0.047756  0  -0.086788  -0.106304  0  4.000918  0
C  C197  1  0.94884965  0.76860424  0.75307789  1  -0.048182  0  -0.086825  -0.106341  0  4.000957  0
C  C198  1  0.55113970  0.76859021  0.25307276  1  -0.046218  0  -0.086792  -0.106363  0  4.000724  0
C  C199  1  0.05114369  0.23140506  0.24692535  1  -0.046363  0  -0.086725  -0.106143  0  4.000689  0
C  C200  1  0.34670414  0.07498704  0.74951520  1  1.577543  0  0.19461  0.554603  0  4.23469  0
C  C201  1  0.84669613  0.92501381  0.75048041  1  1.577685  0  0.194621  0.554455  0  4.234743  0
C  C202  1  0.65329458  0.92500589  0.25047936  1  1.577439  0  0.194615  0.554773  0  4.234546  0
C  C203  1  0.15330079  0.07499029  0.24951839  1  1.577193  0  0.194577  0.554636  0  4.234586  0
C  C204  1  0.11191429  0.18864757  0.76209667  1  1.582245  0  0.207363  0.58724  0  4.196333  0
C  C205  1  0.61190688  0.81135883  0.73790506  1  1.582367  0  0.207311  0.587173  0  4.19638  0
C  C206  1  0.88808173  0.81135799  0.23791201  1  1.582377  0  0.207385  0.587212  0  4.196543  0
C  C207  1  0.38808556  0.18864080  0.26209185  1  1.582815  0  0.207372  0.587097  0  4.196882  0
N  N208  1  0.85704978  0.71340591  0.00743509  1  -0.852041  0  -0.138859  0.166673  0  3.739779  0
N  N209  1  0.35704702  0.28659284  0.49256401  1  -0.851913  0  -0.138909  0.166556  0  3.73964  0
N  N210  1  0.14295432  0.28659521  0.99256357  1  -0.851322  0  -0.138945  0.166489  0  3.739665  0
N  N211  1  0.64295170  0.71340678  0.50743626  1  -0.851977  0  -0.138916  0.166546  0  3.739767  0
N  N212  1  0.84937458  0.69298954  0.93937301  1  -0.654634  0  -0.235376  -0.286807  0  3.085134  0
N  N213  1  0.34937209  0.30700607  0.56062918  1  -0.654704  0  -0.235394  -0.286797  0  3.085085  0
N  N214  1  0.15063400  0.30700560  0.06062872  1  -0.655314  0  -0.235394  -0.286747  0  3.085038  0
N  N215  1  0.65062752  0.69299578  0.43937490  1  -0.654551  0  -0.23539  -0.286797  0  3.08526  0
N  N216  1  0.91110274  0.85051924  0.98840434  1  -1.224919  0  -0.350497  -0.335939  0  3.506599  0
N  N217  1  0.41109723  0.14947797  0.51159335  1  -1.225044  0  -0.350424  -0.335859  0  3.506392  0
N  N218  1  0.08890046  0.14947891  0.01158987  1  -1.225  0  -0.350514  -0.335931  0  3.506391  0
N  N219  1  0.58889700  0.85052313  0.48841058  1  -1.225303  0  -0.350602  -0.336025  0  3.506558  0
N  N220  1  0.41539153  0.74605676  0.10629116  1  -0.796854  0  -0.127519  0.166603  0  3.739993  0
N  N221  1  0.91539195  0.25394060  0.39370521  1  -0.796477  0  -0.127447  0.166659  0  3.739996  0
N  N222  1  0.58461167  0.25394509  0.89370957  1  -0.796728  0  -0.127479  0.166729  0  3.739833  0
N  N223  1  0.08461035  0.74605605  0.60629108  1  -0.796835  0  -0.127466  0.166663  0  3.739947  0
N  N224  1  0.44822323  0.84348999  0.12301549  1  -0.70385  0  -0.19732  -0.221291  0  3.181236  0
N  N225  1  0.94822251  0.15650594  0.37698199  1  -0.70384  0  -0.197319  -0.221261  0  3.181212  0
N  N226  1  0.55177997  0.15651038  0.87698445  1  -0.703726  0  -0.197283  -0.221345  0  3.181212  0
N  N227  1  0.05177890  0.84349220  0.62301605  1  -0.703759  0  -0.197292  -0.221243  0  3.181189  0
N  N228  1  0.27659480  0.82823522  0.17445351  1  -1.214952  0  -0.348579  -0.320333  0  3.510139  0
N  N229  1  0.77659426  0.17176340  0.32554514  1  -1.215148  0  -0.348624  -0.320422  0  3.510279  0
N  N230  1  0.72340750  0.17176590  0.82554611  1  -1.214973  0  -0.34855  -0.320228  0  3.510232  0
N  N231  1  0.22340804  0.82823398  0.67445371  1  -1.214934  0  -0.348596  -0.320293  0  3.510065  0
O  O232  1  0.20180017  0.93928164  0.01881304  1  -1.18885  0  -0.319409  -0.569667  0  2.23065  0
O  O233  1  0.70179890  0.06071986  0.48118099  1  -1.188959  0  -0.319441  -0.569781  0  2.230578  0
O  O234  1  0.79819675  0.06071575  0.98118580  1  -1.188914  0  -0.319409  -0.569718  0  2.23075  0
O  O235  1  0.29818906  0.93928350  0.51881765  1  -1.188821  0  -0.319366  -0.569703  0  2.230716  0
O  O236  1  0.38016867  0.86493061  0.98179839  1  -1.106173  0  -0.328469  -0.563735  0  2.259373  0
O  O237  1  0.88016433  0.13506579  0.51820442  1  -1.106094  0  -0.328527  -0.563867  0  2.259368  0
O  O238  1  0.61983453  0.13506676  0.01820715  1  -1.106071  0  -0.328542  -0.563868  0  2.259502  0
O  O239  1  0.11982990  0.86492863  0.48179093  1  -1.106091  0  -0.328518  -0.563893  0  2.25948  0
O  O240  1  0.26810233  0.86971913  0.84939031  1  -1.162555  0  -0.320849  -0.581708  0  2.27371  0
O  O241  1  0.76811108  0.13028084  0.65060662  1  -1.162712  0  -0.320865  -0.581694  0  2.273743  0
O  O242  1  0.73187935  0.13026857  0.15060700  1  -1.163037  0  -0.320697  -0.581478  0  2.273565  0
O  O243  1  0.23187060  0.86972699  0.34939105  1  -1.162803  0  -0.320726  -0.581517  0  2.273697  0
O  O244  1  0.33085680  0.72309755  0.78062169  1  -1.165314  0  -0.334403  -0.551652  0  2.115403  0
O  O245  1  0.83085684  0.27690326  0.71937776  1  -1.165328  0  -0.334389  -0.551572  0  2.115406  0
O  O246  1  0.66914550  0.27689013  0.21938136  1  -1.16576  0  -0.334451  -0.551639  0  2.115411  0
O  O247  1  0.16915891  0.72309714  0.28061404  1  -1.165794  0  -0.334418  -0.551692  0  2.115472  0
O  O248  1  0.04495202  0.94605051  0.88688112  1  -1.304454  0  -0.602596  -0.793583  0  2.073425  0
O  O249  1  0.54495168  0.05395653  0.61311935  1  -1.304558  0  -0.602618  -0.793649  0  2.073312  0
O  O250  1  0.95504132  0.05395583  0.11311671  1  -1.304555  0  -0.602662  -0.793783  0  2.073325  0
O  O251  1  0.45504256  0.94603712  0.38688063  1  -1.304468  0  -0.602618  -0.793819  0  2.07323  0
O  O252  1  0.27475664  0.04519372  0.78606288  1  -1.159723  0  -0.318881  -0.532723  0  2.154799  0
O  O253  1  0.77475509  0.95480701  0.71393132  1  -1.159779  0  -0.318891  -0.532662  0  2.154814  0
O  O254  1  0.72524835  0.95480292  0.21393772  1  -1.15974  0  -0.318872  -0.532755  0  2.154739  0
O  O255  1  0.22524990  0.04519933  0.28606507  1  -1.159587  0  -0.318855  -0.532752  0  2.154681  0
O  O256  1  0.42769906  0.01779123  0.71357104  1  -1.17485  0  -0.322  -0.556099  0  2.236571  0
O  O257  1  0.92769561  0.98220751  0.78642551  1  -1.174696  0  -0.321986  -0.556061  0  2.236559  0
O  O258  1  0.57229697  0.98220245  0.28642272  1  -1.174824  0  -0.322018  -0.556224  0  2.236463  0
O  O259  1  0.07230490  0.01779285  0.21357490  1  -1.174808  0  -0.32199  -0.556141  0  2.236547  0
O  O260  1  0.04807031  0.22175497  0.81420122  1  -1.158103  0  -0.322594  -0.55112  0  2.139782  0
O  O261  1  0.54805756  0.77825281  0.68580419  1  -1.157803  0  -0.322611  -0.551099  0  2.139822  0
O  O262  1  0.95193289  0.77825804  0.18580853  1  -1.15777  0  -0.322703  -0.551187  0  2.140091  0
O  O263  1  0.45192860  0.22174607  0.31419592  1  -1.158037  0  -0.322787  -0.55117  0  2.140131  0
O  O264  1  0.07400078  0.12222103  0.70881877  1  -1.163884  0  -0.311971  -0.547179  0  2.252368  0
O  O265  1  0.57399970  0.87778905  0.79118231  1  -1.164144  0  -0.311872  -0.547051  0  2.252295  0
O  O266  1  0.92598808  0.87778377  0.29119406  1  -1.16416  0  -0.311883  -0.547033  0  2.252319  0
O  O267  1  0.42599902  0.12221432  0.20881299  1  -1.164169  0  -0.311799  -0.546981  0  2.252418  0
O  O268  1  0.37750108  0.05376562  0.92655028  1  -1.211242  0  -0.583893  -0.750333  0  2.111314  0
O  O269  1  0.87749538  0.94623153  0.57344837  1  -1.21102  0  -0.58379  -0.750134  0  2.111501  0
O  O270  1  0.62250750  0.94623103  0.07344649  1  -1.210309  0  -0.583883  -0.750164  0  2.111527  0
O  O271  1  0.12250244  0.05376734  0.42655173  1  -1.21093  0  -0.583844  -0.750152  0  2.11154  0
O  O272  1  0.64201720  0.91081759  0.92153189  1  -1.265322  0  -0.598403  -0.766875  0  2.046659  0
O  O273  1  0.14201583  0.08918292  0.57846524  1  -1.265243  0  -0.598425  -0.766957  0  2.046582  0
O  O274  1  0.35798241  0.08918876  0.07846451  1  -1.265338  0  -0.598353  -0.766821  0  2.046737  0
O  O275  1  0.85798020  0.91081447  0.42153408  1  -1.265441  0  -0.598374  -0.76682  0  2.046685  0
