# generated using pymatgen
data_Cu2H3C4N2ClO
_symmetry_space_group_name_H-M   'P 1'
_cell_length_a   3.43157746
_cell_length_b   8.65048241
_cell_length_c   9.77412355
_cell_angle_alpha   89.99778490
_cell_angle_beta   99.00274031
_cell_angle_gamma   89.99620179
_symmetry_Int_Tables_number   1
_chemical_formula_structural   Cu2H3C4N2ClO
_chemical_formula_sum   'Cu4 H6 C8 N4 Cl2 O2'
_cell_volume   286.56859409
_cell_formula_units_Z   2
loop_
 _symmetry_equiv_pos_site_id
 _symmetry_equiv_pos_as_xyz
  1  'x, y, z'
loop_
 _atom_site_type_symbol
 _atom_site_label
 _atom_site_symmetry_multiplicity
 _atom_site_fract_x
 _atom_site_fract_y
 _atom_site_fract_z
 _atom_site_occupancy
 _atom_site_pbe_bader_spin_density
 _atom_site_pbe_cm5_charge
 _atom_site_pbe_ddec_charge
 _atom_site_pbe_ddec_spin_density
 _atom_site_pbe_ddec_sum_bond_order
 _atom_site_pbe_magmom
Cu  Cu0  1  0.96704386  0.42214660  0.11045224  1  0  0.404798  0.32437  0  2.384315  0
Cu  Cu1  1  0.03280308  0.92212882  0.88951500  1  0  0.404983  0.324486  0  2.384987  0
Cu  Cu2  1  0.03284471  0.57789831  0.88954200  1  0  0.404823  0.324424  0  2.384736  0
Cu  Cu3  1  0.96718270  0.07785828  0.11050310  1  0  0.404983  0.324432  0  2.384557  0
H  H4  1  0.81283841  0.49961871  0.38182652  1  0  0.110742  0.092621  0  1.009535  0
H  H5  1  0.18715162  0.99955212  0.61812137  1  0  0.11079  0.092737  0  1.008808  0
H  H6  1  0.18717140  0.50044123  0.61814484  1  0  0.110699  0.092669  0  1.008941  0
H  H7  1  0.81279907  0.00038759  0.38185896  1  0  0.110722  0.092697  0  1.009292  0
H  H8  1  0.76354639  0.75000848  0.51670743  1  0  0.09288  0.125149  0  1.061178  0
H  H9  1  0.23658430  0.24998672  0.48328093  1  0  0.092787  0.124988  0  1.060938  0
C  C10  1  0.98614205  0.75000248  0.14544059  1  0  0.312173  0.591676  0  4.026835  0
C  C11  1  0.01383205  0.25000081  0.85456253  1  0  0.312085  0.591738  0  4.02645  0
C  C12  1  0.85682506  0.61339759  0.33870369  1  0  0.048176  0.143371  0  3.911586  0
C  C13  1  0.14310188  0.11335505  0.66132017  1  0  0.048044  0.143295  0  3.911645  0
C  C14  1  0.14313727  0.38660223  0.66129570  1  0  0.048237  0.143182  0  3.910967  0
C  C15  1  0.85698713  0.88662397  0.33870678  1  0  0.048131  0.143244  0  3.91151  0
C  C16  1  0.82531220  0.75001901  0.41070244  1  0  -0.111162  -0.219996  0  4.002467  0
C  C17  1  0.17468539  0.24995191  0.58931530  1  0  -0.11107  -0.219801  0  4.001951  0
N  N18  1  0.93178122  0.61208598  0.20730627  1  0  -0.388322  -0.346183  0  3.658581  0
N  N19  1  0.06821984  0.11203559  0.79270747  1  0  -0.388408  -0.346409  0  3.658756  0
N  N20  1  0.06823716  0.38793696  0.79269729  1  0  -0.388323  -0.346357  0  3.658514  0
N  N21  1  0.93179275  0.88793649  0.20728349  1  0  -0.388454  -0.346303  0  3.658955  0
Cl  Cl22  1  0.48575695  0.25001685  0.24949633  1  0  -0.295388  -0.454614  0  1.630496  0
Cl  Cl23  1  0.51424950  0.74999222  0.75052088  1  0  -0.295413  -0.454655  0  1.631083  0
O  O24  1  0.09275814  0.75002457  0.02427294  1  0  -0.34933  -0.470466  0  2.740981  0
O  O25  1  0.90721901  0.24999491  0.97571910  1  0  -0.34918  -0.470295  0  2.740574  0
