# generated using pymatgen
data_CdH20C23N4O5
_symmetry_space_group_name_H-M   'P 1'
_cell_length_a   8.62379033
_cell_length_b   10.82120604
_cell_length_c   12.51940000
_cell_angle_alpha   90.60806791
_cell_angle_beta   105.23212334
_cell_angle_gamma   95.58931255
_symmetry_Int_Tables_number   1
_chemical_formula_structural   CdH20C23N4O5
_chemical_formula_sum   'Cd2 H40 C46 N8 O10'
_cell_volume   1121.10762023
_cell_formula_units_Z   2
loop_
 _symmetry_equiv_pos_site_id
 _symmetry_equiv_pos_as_xyz
  1  'x, y, z'
loop_
 _atom_site_type_symbol
 _atom_site_label
 _atom_site_symmetry_multiplicity
 _atom_site_fract_x
 _atom_site_fract_y
 _atom_site_fract_z
 _atom_site_occupancy
 _atom_site_hle17_bader_spin_density
 _atom_site_hle17_ddec_charge
 _atom_site_hle17_ddec_spin_density
 _atom_site_hle17_ddec_sum_bond_order
 _atom_site_hle17_magmom
 _atom_site_hse06_10hf_bader_spin_density
 _atom_site_hse06_10hf_ddec_charge
 _atom_site_hse06_10hf_ddec_spin_density
 _atom_site_hse06_10hf_ddec_sum_bond_order
 _atom_site_hse06_10hf_magmom
 _atom_site_hse06_bader_spin_density
 _atom_site_hse06_ddec_charge
 _atom_site_hse06_ddec_spin_density
 _atom_site_hse06_ddec_sum_bond_order
 _atom_site_hse06_magmom
 _atom_site_pbe_bader_charge
 _atom_site_pbe_bader_spin_density
 _atom_site_pbe_cm5_charge
 _atom_site_pbe_ddec_charge
 _atom_site_pbe_ddec_spin_density
 _atom_site_pbe_ddec_sum_bond_order
 _atom_site_pbe_magmom
Cd  Cd0  1  0.86016417  0.40121067  0.21175258  1  0  1.064675  0  1.756178  0  0  0.866488  0  2.208308  0  0  0.923214  0  2.157876  0  1.21286  0  0.769895  0.82653  0  2.242577  0
Cd  Cd1  1  0.13983795  0.59878732  0.78824467  1  0  1.064711  0  1.756152  0  0  0.866553  0  2.208264  0  0  0.923277  0  2.157834  0  1.212732  0  0.769899  0.826596  0  2.242531  0
H  H2  1  0.06646632  0.29754783  0.03317055  1  0  0.107083  0  0.918114  0  0  0.119658  0  0.975047  0  0  0.122263  0  0.971469  0  0.162072  0  0.147495  0.117678  0  0.97768  0
H  H3  1  0.93352739  0.70245015  0.96682517  1  0  0.10712  0  0.918105  0  0  0.119686  0  0.975052  0  0  0.122291  0  0.971474  0  0.162047  0  0.147524  0.117704  0  0.977686  0
H  H4  1  0.60116236  0.17181402  0.06047757  1  0  0.116403  0  0.939526  0  0  0.128244  0  0.992583  0  0  0.131347  0  0.990284  0  0.138215  0  0.123491  0.125954  0  0.994401  0
H  H5  1  0.39883457  0.82818117  0.93952271  1  0  0.116456  0  0.939481  0  0  0.128297  0  0.992533  0  0  0.131402  0  0.99023  0  0.138183  0  0.123524  0.126004  0  0.994354  0
H  H6  1  0.66782907  0.03149942  0.89303383  1  0  0.109483  0  0.963269  0  0  0.121563  0  1.021128  0  0  0.124348  0  1.019383  0  0.091873  0  0.122692  0.119545  0  1.022486  0
H  H7  1  0.33216008  0.96850042  0.10696029  1  0  0.109532  0  0.963184  0  0  0.121651  0  1.020998  0  0  0.124386  0  1.019311  0  0.09192  0  0.122662  0.119623  0  1.022364  0
H  H8  1  0.12196954  0.28716417  0.86733536  1  0  0.128742  0  0.953083  0  0  0.136627  0  1.015441  0  0  0.140452  0  1.012132  0  0.135334  0  0.112947  0.133753  0  1.018119  0
H  H9  1  0.87802645  0.71283288  0.13266317  1  0  0.128695  0  0.953139  0  0  0.136628  0  1.015437  0  0  0.140453  0  1.012128  0  0.135304  0  0.112937  0.133753  0  1.018118  0
H  H10  1  0.26838408  0.21507509  0.74221011  1  0  0.116542  0  0.973908  0  0  0.124695  0  1.03659  0  0  0.128283  0  1.034935  0  0.113732  0  0.105471  0.122143  0  1.037791  0
H  H11  1  0.73161336  0.78492382  0.25779029  1  0  0.116481  0  0.97396  0  0  0.124617  0  1.036666  0  0  0.128205  0  1.035011  0  0.113643  0  0.105447  0.122067  0  1.037865  0
H  H12  1  0.99105456  0.85397539  0.70852385  1  0  0.128097  0  0.950199  0  0  0.135876  0  1.015335  0  0  0.139445  0  1.013071  0  0.107182  0  0.109525  0.133236  0  1.017193  0
H  H13  1  0.00893832  0.14602538  0.29147335  1  0  0.128083  0  0.950237  0  0  0.135868  0  1.015353  0  0  0.139439  0  1.013086  0  0.107158  0  0.109548  0.133229  0  1.017211  0
H  H14  1  0.84939695  0.92417915  0.84155773  1  0  0.101274  0  0.943243  0  0  0.114575  0  0.999389  0  0  0.117535  0  0.997458  0  0.068774  0  0.108076  0.112448  0  1.000866  0
H  H15  1  0.15059365  0.07582255  0.15843827  1  0  0.101279  0  0.943312  0  0  0.114598  0  0.999438  0  0  0.117558  0  0.997503  0  0.068781  0  0.108078  0.112471  0  1.000915  0
H  H16  1  0.52508468  0.96681209  0.71655908  1  0  0.10503  0  0.942273  0  0  0.11908  0  0.998088  0  0  0.121796  0  0.996594  0  0.061694  0  0.108246  0.117097  0  0.999327  0
H  H17  1  0.47491604  0.03319333  0.28343718  1  0  0.105096  0  0.942139  0  0  0.119123  0  0.997983  0  0  0.121841  0  0.996481  0  0.061691  0  0.10826  0.117139  0  0.999224  0
H  H18  1  0.73902660  0.08304140  0.64504939  1  0  0.102582  0  0.970802  0  0  0.110745  0  1.036715  0  0  0.112729  0  1.037368  0  0.077264  0  0.104606  0.10933  0  1.036331  0
H  H19  1  0.26097279  0.91696309  0.35494743  1  0  0.102578  0  0.97088  0  0  0.110738  0  1.036788  0  0  0.112725  0  1.037438  0  0.077217  0  0.104615  0.109323  0  1.036405  0
H  H20  1  0.37106263  0.27778496  0.42716814  1  0  0.121071  0  0.974191  0  0  0.126495  0  1.040661  0  0  0.130654  0  1.037711  0  0.135752  0  0.106396  0.123396  0  1.042962  0
H  H21  1  0.62893897  0.72222696  0.57283633  1  0  0.121075  0  0.974227  0  0  0.126516  0  1.040671  0  0  0.130674  0  1.037721  0  0.136147  0  0.106375  0.123417  0  1.042973  0
H  H22  1  0.16289726  0.15854431  0.49725055  1  0  0.11756  0  0.944849  0  0  0.127179  0  1.005961  0  0  0.130049  0  1.005082  0  0.10386  0  0.110051  0.125065  0  1.006798  0
H  H23  1  0.83710599  0.84146204  0.50274857  1  0  0.117525  0  0.944939  0  0  0.127149  0  1.006047  0  0  0.130018  0  1.005169  0  0.103847  0  0.110036  0.125034  0  1.006885  0
H  H24  1  0.89533089  0.27304797  0.63919638  1  0  0.125264  0  0.964424  0  0  0.133998  0  1.026825  0  0  0.136705  0  1.025968  0  0.122494  0  0.124513  0.131998  0  1.027581  0
H  H25  1  0.10468508  0.72695466  0.36080262  1  0  0.125206  0  0.964469  0  0  0.133985  0  1.026825  0  0  0.136676  0  1.025981  0  0.122465  0  0.124494  0.131985  0  1.027582  0
H  H26  1  0.05414942  0.37457089  0.48874180  1  0  0.112382  0  0.943625  0  0  0.123966  0  0.997829  0  0  0.126296  0  0.997413  0  0.128162  0  0.122381  0.122305  0  0.998207  0
H  H27  1  0.94585991  0.62542709  0.51125356  1  0  0.112403  0  0.943611  0  0  0.123939  0  0.997864  0  0  0.126266  0  0.997456  0  0.128293  0  0.122403  0.122279  0  0.998241  0
H  H28  1  0.56788906  0.27021952  0.31862754  1  0  0.106334  0  0.94718  0  0  0.114842  0  1.012816  0  0  0.117781  0  1.008551  0  0.17652  0  0.137802  0.112617  0  1.015984  0
H  H29  1  0.43210943  0.72979611  0.68137481  1  0  0.106216  0  0.947281  0  0  0.114754  0  1.012878  0  0  0.117689  0  1.008623  0  0.176438  0  0.137784  0.112532  0  1.016042  0
H  H30  1  0.45196003  0.45460358  0.32522537  1  0  0.086257  0  0.96122  0  0  0.100642  0  1.025376  0  0  0.102237  0  1.024878  0  0.012241  0  0.090458  0.099492  0  1.025788  0
H  H31  1  0.54804500  0.54539812  0.67478202  1  0  0.08626  0  0.961184  0  0  0.100659  0  1.025325  0  0  0.10224  0  1.024841  0  0.01249  0  0.090455  0.099516  0  1.025745  0
H  H32  1  0.38426252  0.57014328  0.39638808  1  0  0.091909  0  0.953418  0  0  0.105509  0  1.015928  0  0  0.107531  0  1.015977  0  0.050775  0  0.093148  0.104207  0  1.015809  0
H  H33  1  0.61573409  0.42985842  0.60361460  1  0  0.09195  0  0.953418  0  0  0.105542  0  1.015927  0  0  0.107556  0  1.015982  0  0.050868  0  0.093175  0.104249  0  1.015814  0
H  H34  1  0.51950986  0.67774401  0.27031981  1  0  0.055116  0  0.96117  0  0  0.072854  0  1.025964  0  0  0.073551  0  1.026928  0  0.034437  0  0.081841  0.072344  0  1.025317  0
H  H35  1  0.48049396  0.32225769  0.72968417  1  0  0.05517  0  0.961108  0  0  0.072894  0  1.025931  0  0  0.073591  0  1.026894  0  0.034507  0  0.081852  0.072389  0  1.025276  0
H  H36  1  0.30927495  0.68618196  0.21644051  1  0  0.066485  0  0.951115  0  0  0.080265  0  1.020006  0  0  0.081739  0  1.020149  0  0.048895  0  0.083175  0.079182  0  1.020043  0
H  H37  1  0.69072621  0.31381789  0.78356137  1  0  0.066448  0  0.951147  0  0  0.080233  0  1.020039  0  0  0.081707  0  1.020181  0  0.048866  0  0.083154  0.07915  0  1.020077  0
H  H38  1  0.29849412  0.50149405  0.08630758  1  0  0.093586  0  0.931311  0  0  0.108907  0  0.990689  0  0  0.110825  0  0.989874  0  0.030922  0  0.090526  0.107533  0  0.991345  0
H  H39  1  0.70150774  0.49850207  0.91369759  1  0  0.093575  0  0.931396  0  0  0.108917  0  0.99073  0  0  0.110826  0  0.989926  0  0.030904  0  0.090554  0.107533  0  0.991393  0
H  H40  1  0.42594014  0.63290798  0.06460047  1  0  0.100357  0  0.958437  0  0  0.113457  0  1.021845  0  0  0.115233  0  1.022381  0  0.058977  0  0.093626  0.112271  0  1.021464  0
H  H41  1  0.57406508  0.36708629  0.93540449  1  0  0.100321  0  0.958525  0  0  0.113424  0  1.021906  0  0  0.115202  0  1.022437  0  0.058812  0  0.093614  0.112235  0  1.021523  0
C  C42  1  0.94836643  0.24559144  0.01839036  1  0  0.180818  0  3.630913  0  0  0.117677  0  3.897667  0  0  0.132649  0  3.909105  0  0.966247  0  0.153845  0.107951  0  3.88965  0
C  C43  1  0.05162367  0.75440655  0.98160711  1  0  0.180783  0  3.63074  0  0  0.117641  0  3.897498  0  0  0.132611  0  3.908944  0  0.966054  0  0.153811  0.107919  0  3.88948  0
C  C44  1  0.70867073  0.17459880  0.03083196  1  0  0.016207  0  3.755156  0  0  -0.017404  0  4.018692  0  0  -0.014756  0  4.038349  0  0.436454  0  0.006204  -0.019189  0  4.005455  0
C  C45  1  0.29132260  0.82539640  0.96916607  1  0  0.016207  0  3.755132  0  0  -0.017392  0  4.018639  0  0  -0.014743  0  4.038287  0  0.436691  0  0.006231  -0.019179  0  4.005405  0
C  C46  1  0.74007657  0.10542179  0.94802230  1  0  -0.060789  0  3.66956  0  0  -0.101398  0  3.928792  0  0  -0.100298  0  3.947562  0  0.29814  0  0.003173  -0.102108  0  3.916165  0
C  C47  1  0.25991726  0.89457713  0.05197345  1  0  -0.060893  0  3.669548  0  0  -0.101545  0  3.928762  0  0  -0.1004  0  3.947559  0  0.298136  0  0.003162  -0.102243  0  3.916126  0
C  C48  1  0.97543698  0.11032046  0.86425517  1  0  0.142158  0  3.803961  0  0  0.129913  0  4.062301  0  0  0.133785  0  4.08539  0  0.268074  0  0.080234  0.127276  0  4.046682  0
C  C49  1  0.02455723  0.88968124  0.13573989  1  0  0.142236  0  3.803908  0  0  0.130025  0  4.062192  0  0  0.133894  0  4.085284  0  0.268129  0  0.08029  0.127389  0  4.046571  0
C  C50  1  0.09346912  0.19117177  0.83571977  1  0  -0.121805  0  3.738716  0  0  -0.143967  0  3.994056  0  0  -0.144882  0  4.011875  0  0.015042  0  -0.088136  -0.143383  0  3.982261  0
C  C51  1  0.90652509  0.80882993  0.16427767  1  0  -0.121829  0  3.738881  0  0  -0.144043  0  3.994191  0  0  -0.144957  0  4.012009  0  0.015117  0  -0.088141  -0.143459  0  3.982395  0
C  C52  1  0.17637874  0.15048733  0.76258357  1  0  -0.182375  0  3.765686  0  0  -0.200366  0  4.01231  0  0  -0.205551  0  4.032621  0  0.005152  0  -0.103429  -0.196735  0  3.99853  0
C  C53  1  0.82361401  0.84951251  0.23741520  1  0  -0.182277  0  3.765722  0  0  -0.200206  0  4.012402  0  0  -0.205392  0  4.032714  0  0.004977  0  -0.103373  -0.196575  0  3.998619  0
C  C54  1  0.13845993  0.02957601  0.71638572  1  0  0.270287  0  3.803277  0  0  0.26079  0  4.062953  0  0  0.270933  0  4.079088  0  0.339241  0  0.083531  0.253699  0  4.051919  0
C  C55  1  0.86153523  0.97042383  0.28361189  1  0  0.270397  0  3.803205  0  0  0.260689  0  4.063103  0  0  0.270827  0  4.079241  0  0.339343  0  0.083487  0.253596  0  4.052069  0
C  C56  1  0.01874941  0.94874498  0.74347859  1  0  -0.164484  0  3.737493  0  0  -0.18796  0  3.996611  0  0  -0.192002  0  4.015868  0  0.033462  0  -0.100232  -0.185183  0  3.983796  0
C  C57  1  0.98124468  0.05125579  0.25651563  1  0  -0.164493  0  3.737606  0  0  -0.187905  0  3.996743  0  0  -0.191948  0  4.016002  0  0.033433  0  -0.100286  -0.185128  0  3.983927  0
C  C58  1  0.93875186  0.98900385  0.81826018  1  0  -0.128264  0  3.773965  0  0  -0.150946  0  4.03422  0  0  -0.152715  0  4.054367  0  -0.035857  0  -0.092405  -0.149669  0  4.020507  0
C  C59  1  0.06124127  0.01099878  0.18173549  1  0  -0.128385  0  3.774179  0  0  -0.151085  0  4.034379  0  0  -0.152863  0  4.054553  0  -0.035821  0  -0.092454  -0.149807  0  4.020662  0
C  C60  1  0.33322796  0.05713196  0.61155612  1  0  0.253584  0  3.801148  0  0  0.244529  0  4.065651  0  0  0.253177  0  4.082066  0  0.449506  0  0.080045  0.238559  0  4.054418  0
C  C61  1  0.66677156  0.94287345  0.38844233  1  0  0.253778  0  3.801027  0  0  0.244651  0  4.065572  0  0  0.253292  0  4.081991  0  0.451781  0  0.080133  0.23866  0  4.054365  0
C  C62  1  0.49453560  0.03695003  0.65486904  1  0  -0.15751  0  3.765701  0  0  -0.182837  0  4.023929  0  0  -0.18683  0  4.044828  0  -0.091606  0  -0.093744  -0.180079  0  4.009808  0
C  C63  1  0.50546379  0.96305446  0.34512857  1  0  -0.15761  0  3.765676  0  0  -0.182908  0  4.023928  0  0  -0.186904  0  4.044832  0  -0.090943  0  -0.093797  -0.180144  0  4.009814  0
C  C64  1  0.61359073  0.10222910  0.61513180  1  0  -0.119244  0  3.747244  0  0  -0.139165  0  4.001844  0  0  -0.141577  0  4.02352  0  0.044807  0  -0.08441  -0.137454  0  3.987187  0
C  C65  1  0.38640854  0.89777446  0.38486818  1  0  -0.119218  0  3.747503  0  0  -0.139137  0  4.002086  0  0  -0.141551  0  4.023765  0  0.044193  0  -0.08441  -0.137427  0  3.987424  0
C  C66  1  0.57021519  0.18875402  0.53346569  1  0  0.165063  0  3.78273  0  0  0.154924  0  4.030828  0  0  0.159038  0  4.054167  0  0.262072  0  0.093602  0.152047  0  4.015163  0
C  C67  1  0.42979071  0.81125418  0.46653314  1  0  0.164996  0  3.78278  0  0  0.154868  0  4.030884  0  0  0.158978  0  4.054228  0  0.262115  0  0.09362  0.151996  0  4.015213  0
C  C68  1  0.40857500  0.21078968  0.49119750  1  0  -0.12475  0  3.709537  0  0  -0.142248  0  3.959101  0  0  -0.145648  0  3.979189  0  0.032336  0  -0.084218  -0.139867  0  3.94565  0
C  C69  1  0.59142958  0.78921759  0.50880588  1  0  -0.124756  0  3.709565  0  0  -0.14228  0  3.959132  0  0  -0.14568  0  3.979223  0  0.032052  0  -0.084191  -0.139901  0  3.945684  0
C  C70  1  0.28961824  0.14396073  0.53036083  1  0  -0.149178  0  3.728586  0  0  -0.169577  0  3.977319  0  0  -0.172803  0  3.996573  0  -0.007164  0  -0.089424  -0.167395  0  3.964379  0
C  C71  1  0.71038526  0.85604748  0.46964076  1  0  -0.149186  0  3.728505  0  0  -0.169567  0  3.977245  0  0  -0.172794  0  3.996502  0  -0.00947  0  -0.089399  -0.167378  0  3.96431  0
C  C72  1  0.85332212  0.28413038  0.55075701  1  0  -0.048203  0  3.638462  0  0  -0.089246  0  3.896653  0  0  -0.087269  0  3.914237  0  0.318245  0  0.004717  -0.090598  0  3.885125  0
C  C73  1  0.14668207  0.71587411  0.44924467  1  0  -0.048275  0  3.638678  0  0  -0.089352  0  3.896832  0  0  -0.087357  0  3.914431  0  0.320198  0  0.004724  -0.0907  0  3.885301  0
C  C74  1  0.92955510  0.33639247  0.47638485  1  0  0.004862  0  3.750882  0  0  -0.028912  0  4.017646  0  0  -0.027093  0  4.037625  0  0.387456  0  -6.9e-05  -0.030179  0  4.00429  0
C  C75  1  0.07045473  0.66360923  0.52361702  1  0  0.004944  0  3.751062  0  0  -0.028778  0  4.017834  0  0  -0.026958  0  4.037811  0  0.385425  0  -2.7e-05  -0.030046  0  4.004476  0
C  C76  1  0.67840845  0.28518314  0.38500336  1  0  0.173674  0  3.645602  0  0  0.106458  0  3.920172  0  0  0.121697  0  3.931136  0  0.948767  0  0.144793  0.096568  0  3.912508  0
C  C77  1  0.32159625  0.71482506  0.61499924  1  0  0.17385  0  3.645417  0  0  0.106612  0  3.920044  0  0  0.121854  0  3.931005  0  0.948977  0  0.144884  0.096723  0  3.912383  0
C  C78  1  0.19560361  0.46404784  0.27906023  1  0  0.678122  0  3.887735  0  0  0.634618  0  4.182834  0  0  0.667619  0  4.178091  0  1.541722  0  0.18678  0.612204  0  4.185102  0
C  C79  1  0.80439674  0.53595479  0.72094313  1  0  0.67809  0  3.887976  0  0  0.634632  0  4.18301  0  0  0.667638  0  4.178257  0  1.541661  0  0.186776  0.612229  0  4.185285  0
C  C80  1  0.36788310  0.52632842  0.31390385  1  0  -0.261464  0  3.68455  0  0  -0.293867  0  3.930102  0  0  -0.299981  0  3.939075  0  -0.029986  0  -0.172485  -0.289635  0  3.923819  0
C  C81  1  0.63211978  0.47367514  0.68609998  1  0  -0.261473  0  3.684591  0  0  -0.293908  0  3.930182  0  0  -0.300005  0  3.939157  0  -0.030229  0  -0.172526  -0.289719  0  3.923943  0
C  C82  1  0.40363742  0.62247972  0.23286017  1  0  -0.061361  0  3.693321  0  0  -0.104117  0  3.952383  0  0  -0.104026  0  3.966078  0  -0.012994  0  -0.169722  -0.103945  0  3.942843  0
C  C83  1  0.59636748  0.37752106  0.76714240  1  0  -0.061345  0  3.693286  0  0  -0.10414  0  3.952379  0  0  -0.104052  0  3.966081  0  -0.013092  0  -0.169704  -0.103953  0  3.942838  0
C  C84  1  0.41064286  0.56126676  0.12323932  1  0  -0.263911  0  3.664875  0  0  -0.300245  0  3.910035  0  0  -0.307078  0  3.920139  0  -0.019838  0  -0.174098  -0.295623  0  3.903127  0
C  C85  1  0.58935913  0.43873029  0.87676669  1  0  -0.264017  0  3.665048  0  0  -0.300248  0  3.910123  0  0  -0.307083  0  3.920219  0  -0.019465  0  -0.174128  -0.295608  0  3.903199  0
C  C86  1  0.55413578  0.48602681  0.14424796  1  0  0.690974  0  3.860465  0  0  0.651949  0  4.149275  0  0  0.684731  0  4.144772  0  1.509023  0  0.190182  0.629668  0  4.151543  0
C  C87  1  0.44586704  0.51396745  0.85575817  1  0  0.691302  0  3.860091  0  0  0.65214  0  4.14907  0  0  0.684949  0  4.144522  0  1.508894  0  0.190223  0.629855  0  4.151342  0
N  N88  1  0.81931354  0.33625774  0.37378943  1  0  -0.381254  0  3.283886  0  0  -0.3021  0  3.574291  0  0  -0.323366  0  3.589949  0  -1.213697  0  -0.359691  -0.287671  0  3.563277  0
N  N89  1  0.18069028  0.66374396  0.62621535  1  0  -0.381424  0  3.283935  0  0  -0.302279  0  3.574367  0  0  -0.323544  0  3.59002  0  -1.213527  0  -0.359818  -0.287849  0  3.56335  0
N  N90  1  0.69346532  0.25192012  0.49178123  1  0  -0.092047  0  3.595595  0  0  -0.000913  0  3.808572  0  0  -0.015482  0  3.833268  0  -1.241921  0  -0.226176  0.008714  0  3.791823  0
N  N91  1  0.30653673  0.74808622  0.50821768  1  0  -0.091893  0  3.595419  0  0  -0.000776  0  3.808438  0  0  -0.015341  0  3.83313  0  -1.242226  0  -0.226197  0.008845  0  3.791689  0
N  N92  1  0.83949227  0.26104752  0.07383116  1  0  -0.377662  0  3.30435  0  0  -0.298213  0  3.594382  0  0  -0.319841  0  3.611039  0  -1.212585  0  -0.356687  -0.283562  0  3.582744  0
N  N93  1  0.16050239  0.73894860  0.92616872  1  0  -0.377651  0  3.304221  0  0  -0.298185  0  3.594228  0  0  -0.319813  0  3.610889  0  -1.212615  0  -0.35667  -0.283536  0  3.58259  0
N  N94  1  0.89252079  0.15162373  0.94022347  1  0  -0.081298  0  3.604466  0  0  0.006968  0  3.820714  0  0  -0.007456  0  3.846447  0  -1.249242  0  -0.222502  0.016503  0  3.803211  0
N  N95  1  0.10747197  0.84837611  0.05977210  1  0  -0.08135  0  3.604472  0  0  0.006895  0  3.820747  0  0  -0.007526  0  3.846471  0  -1.249234  0  -0.222563  0.016432  0  3.803238  0
O  O96  1  0.16417827  0.35381751  0.30602316  1  0  -0.662471  0  1.896992  0  0  -0.606072  0  2.120797  0  0  -0.632027  0  2.112167  0  -1.200103  0  -0.344612  -0.587569  0  2.125938  0
O  O97  1  0.83582302  0.64618326  0.69397316  1  0  -0.662431  0  1.897072  0  0  -0.606052  0  2.120853  0  0  -0.632008  0  2.112224  0  -1.200146  0  -0.344577  -0.587549  0  2.12599  0
O  O98  1  0.08652374  0.52996526  0.22491582  1  0  -0.659401  0  1.96254  0  0  -0.589094  0  2.209644  0  0  -0.619145  0  2.199605  0  -1.169937  0  -0.348398  -0.568033  0  2.215834  0
O  O99  1  0.91347983  0.47003458  0.77508091  1  0  -0.659402  0  1.962561  0  0  -0.589105  0  2.209634  0  0  -0.619151  0  2.199587  0  -1.169879  0  -0.348406  -0.568044  0  2.21582  0
O  O100  1  0.53670424  0.36868542  0.14726961  1  0  -0.672557  0  1.871029  0  0  -0.622911  0  2.093278  0  0  -0.647862  0  2.083287  0  -1.1914  0  -0.355767  -0.605399  0  2.09955  0
O  O101  1  0.46329522  0.63131070  0.85273833  1  0  -0.67271  0  1.870865  0  0  -0.623036  0  2.093202  0  0  -0.647995  0  2.083196  0  -1.191259  0  -0.355798  -0.605516  0  2.09946  0
O  O102  1  0.69367581  0.55030143  0.16432810  1  0  -0.661589  0  1.945114  0  0  -0.587842  0  2.184829  0  0  -0.618079  0  2.174478  0  -1.155833  0  -0.349477  -0.566666  0  2.191075  0
O  O103  1  0.30632581  0.44969283  0.83568100  1  0  -0.661659  0  1.944944  0  0  -0.587914  0  2.184754  0  0  -0.618159  0  2.174391  0  -1.155964  0  -0.349478  -0.566739  0  2.191002  0
O  O104  1  0.21565344  0.98118103  0.64444880  1  0  -0.300381  0  2.355136  0  0  -0.234112  0  2.582126  0  0  -0.251897  0  2.58537  0  -1.095631  0  -0.157795  -0.221404  0  2.579425  0
O  O105  1  0.78434703  0.01882253  0.35554661  1  0  -0.300472  0  2.355128  0  0  -0.234055  0  2.582129  0  0  -0.251822  0  2.585358  0  -1.095606  0  -0.157782  -0.221339  0  2.579434  0
