# generated using pymatgen
data_CdH7C7(NO)5
_symmetry_space_group_name_H-M   'P 1'
_cell_length_a   5.44223858
_cell_length_b   10.56329018
_cell_length_c   10.12440140
_cell_angle_alpha   101.73233610
_cell_angle_beta   104.23039982
_cell_angle_gamma   99.21095055
_symmetry_Int_Tables_number   1
_chemical_formula_structural   CdH7C7(NO)5
_chemical_formula_sum   'Cd2 H14 C14 N10 O10'
_cell_volume   538.68533644
_cell_formula_units_Z   2
loop_
 _symmetry_equiv_pos_site_id
 _symmetry_equiv_pos_as_xyz
  1  'x, y, z'
loop_
 _atom_site_type_symbol
 _atom_site_label
 _atom_site_symmetry_multiplicity
 _atom_site_fract_x
 _atom_site_fract_y
 _atom_site_fract_z
 _atom_site_occupancy
 _atom_site_hle17_bader_spin_density
 _atom_site_hle17_ddec_charge
 _atom_site_hle17_ddec_spin_density
 _atom_site_hle17_ddec_sum_bond_order
 _atom_site_hle17_magmom
 _atom_site_hse06_10hf_bader_spin_density
 _atom_site_hse06_10hf_ddec_charge
 _atom_site_hse06_10hf_ddec_spin_density
 _atom_site_hse06_10hf_ddec_sum_bond_order
 _atom_site_hse06_10hf_magmom
 _atom_site_hse06_bader_spin_density
 _atom_site_hse06_ddec_charge
 _atom_site_hse06_ddec_spin_density
 _atom_site_hse06_ddec_sum_bond_order
 _atom_site_hse06_magmom
 _atom_site_pbe_bader_spin_density
 _atom_site_pbe_cm5_charge
 _atom_site_pbe_ddec_charge
 _atom_site_pbe_ddec_spin_density
 _atom_site_pbe_ddec_sum_bond_order
 _atom_site_pbe_magmom
Cd  Cd0  1  0.30405825  0.27500056  0.61388276  1  0  1.179443  0  1.645215  0  0  1.004977  0  2.09165  0  0  1.058961  0  2.037788  0  0  0.768172  0.965559  0  2.12941  0
Cd  Cd1  1  0.69592526  0.72498948  0.38613927  1  0  1.179469  0  1.645014  0  0  1.00491  0  2.091397  0  0  1.058903  0  2.037539  0  0  0.768209  0.965479  0  2.129149  0
H  H2  1  0.67526450  0.08538341  0.71330949  1  0  0.077332  0  0.992086  0  0  0.08318  0  1.06027  0  0  0.085869  0  1.05589  0  0  0.122958  0.081002  0  1.063575  0
H  H3  1  0.32472145  0.91459076  0.28668888  1  0  0.077489  0  0.992027  0  0  0.083308  0  1.060214  0  0  0.08601  0  1.055841  0  0  0.122972  0.081128  0  1.063509  0
H  H4  1  0.00410377  0.02855281  0.13662091  1  0  0.325969  0  0.927095  0  0  0.299071  0  1.008933  0  0  0.308281  0  1.001095  0  0  0.293686  0.292558  0  1.014438  0
H  H5  1  0.99588399  0.97143181  0.86337499  1  0  0.325974  0  0.92708  0  0  0.299094  0  1.008928  0  0  0.308308  0  1.001083  0  0  0.293671  0.292575  0  1.014441  0
H  H6  1  0.89926124  0.13217462  0.26132301  1  0  0.335833  0  0.872751  0  0  0.324433  0  0.925935  0  0  0.330314  0  0.922181  0  0  0.315596  0.320507  0  0.928275  0
H  H7  1  0.10079487  0.86783484  0.73868095  1  0  0.335768  0  0.872802  0  0  0.324349  0  0.925988  0  0  0.330222  0  0.922251  0  0  0.315573  0.320422  0  0.928321  0
H  H8  1  0.48570079  0.25792185  0.26503632  1  0  0.321269  0  0.840093  0  0  0.313044  0  0.882086  0  0  0.318695  0  0.87924  0  0  0.346186  0.308918  0  0.884347  0
H  H9  1  0.51433096  0.74209739  0.73496744  1  0  0.321296  0  0.840074  0  0  0.312988  0  0.882149  0  0  0.318645  0  0.879303  0  0  0.346205  0.308861  0  0.884405  0
H  H10  1  0.18912352  0.39680154  0.16563800  1  0  0.093808  0  0.947546  0  0  0.102751  0  1.010536  0  0  0.105233  0  1.007105  0  0  0.139813  0.100689  0  1.013399  0
H  H11  1  0.81092966  0.60322603  0.83436202  1  0  0.093821  0  0.947458  0  0  0.102723  0  1.010475  0  0  0.105251  0  1.006984  0  0  0.13982  0.100659  0  1.013338  0
H  H12  1  0.99197156  0.43911598  0.70573319  1  0  0.419572  0  0.88671  0  0  0.388579  0  0.949972  0  0  0.400289  0  0.932964  0  0  0.281277  0.38023  0  0.962113  0
H  H13  1  0.00795771  0.56086847  0.29425880  1  0  0.419777  0  0.886394  0  0  0.388752  0  0.949703  0  0  0.400464  0  0.932692  0  0  0.281369  0.380401  0  0.961846  0
H  H14  1  0.19051261  0.41383699  0.83942846  1  0  0.386251  0  0.932885  0  0  0.347316  0  1.010269  0  0  0.359017  0  0.993628  0  0  0.274879  0.339063  0  1.021954  0
H  H15  1  0.80944433  0.58616252  0.16055929  1  0  0.386392  0  0.932707  0  0  0.347439  0  1.010093  0  0  0.35914  0  0.993453  0  0  0.274953  0.339188  0  1.021777  0
C  C16  1  0.10930224  0.98148977  0.46672253  1  0  0.509663  0  3.951385  0  0  0.466727  0  4.246179  0  0  0.496195  0  4.241198  0  0  0.186641  0.446702  0  4.248429  0
C  C17  1  0.89065626  0.01850232  0.53323857  1  0  0.510274  0  3.951122  0  0  0.467382  0  4.245842  0  0  0.496852  0  4.240854  0  0  0.187002  0.447357  0  4.248094  0
C  C18  1  0.63531131  0.51513019  0.55640143  1  0  0.533432  0  3.920729  0  0  0.487001  0  4.216297  0  0  0.516213  0  4.21143  0  0  0.202224  0.467092  0  4.219011  0
C  C19  1  0.36466413  0.48487190  0.44362431  1  0  0.533155  0  3.920878  0  0  0.486625  0  4.216527  0  0  0.515861  0  4.211636  0  0  0.202064  0.466714  0  4.21924  0
C  C20  1  0.64528202  0.12497994  0.81469098  1  0  0.309255  0  3.752112  0  0  0.250033  0  4.038421  0  0  0.269396  0  4.047698  0  0  0.160951  0.237337  0  4.031733  0
C  C21  1  0.35471918  0.87500486  0.18530730  1  0  0.308967  0  3.752174  0  0  0.249773  0  4.038474  0  0  0.269115  0  4.047767  0  0  0.160964  0.237083  0  4.031786  0
C  C22  1  0.44992825  0.25362122  0.94342505  1  0  0.335796  0  3.854531  0  0  0.309239  0  4.113839  0  0  0.324238  0  4.132648  0  0  0.211886  0.299482  0  4.101276  0
C  C23  1  0.55010937  0.74638841  0.05658006  1  0  0.335645  0  3.854985  0  0  0.309438  0  4.113867  0  0  0.32444  0  4.132666  0  0  0.211893  0.299675  0  4.101302  0
C  C24  1  0.56232048  0.21125497  0.06283605  1  0  -0.047445  0  3.741984  0  0  -0.049866  0  3.992301  0  0  -0.056313  0  4.013173  0  0  0.08718  -0.046003  0  3.9788  0
C  C25  1  0.43770646  0.78875164  0.93716760  1  0  -0.047519  0  3.742385  0  0  -0.050042  0  3.992605  0  0  -0.05648  0  4.013474  0  0  0.08713  -0.046173  0  3.979095  0
C  C26  1  0.73807396  0.12696802  0.05323339  1  0  0.444218  0  3.880484  0  0  0.407201  0  4.159836  0  0  0.428932  0  4.171314  0  0  0.239228  0.392727  0  4.151831  0
C  C27  1  0.26193394  0.87302794  0.94676997  1  0  0.444295  0  3.880256  0  0  0.407177  0  4.159729  0  0  0.428909  0  4.171201  0  0  0.239213  0.392701  0  4.151723  0
C  C28  1  0.29626318  0.34121229  0.10693064  1  0  0.291417  0  3.63577  0  0  0.224306  0  3.925996  0  0  0.242067  0  3.933866  0  0  0.167979  0.212718  0  3.920586  0
C  C29  1  0.70378233  0.65880882  0.89307276  1  0  0.291408  0  3.635634  0  0  0.224311  0  3.92587  0  0  0.24205  0  3.933728  0  0  0.167896  0.212718  0  3.920466  0
N  N30  1  0.76683242  0.08252791  0.92320784  1  0  -0.466836  0  3.061327  0  0  -0.417498  0  3.335985  0  0  -0.437998  0  3.346587  0  0  -0.330887  -0.403831  0  3.328732  0
N  N31  1  0.23315913  0.91745525  0.07679324  1  0  -0.466841  0  3.06128  0  0  -0.417437  0  3.335915  0  0  -0.437934  0  3.346521  0  0  -0.330903  -0.403775  0  3.328667  0
N  N32  1  0.49269613  0.21273678  0.81701842  1  0  -0.472205  0  3.192152  0  0  -0.399873  0  3.471413  0  0  -0.426543  0  3.486165  0  0  -0.347016  -0.381869  0  3.461142  0
N  N33  1  0.50732916  0.78726097  0.18298394  1  0  -0.472007  0  3.192299  0  0  -0.399825  0  3.471454  0  0  -0.426498  0  3.486216  0  0  -0.347057  -0.381819  0  3.461179  0
N  N34  1  0.87417885  0.08534787  0.15951554  1  0  -0.63624  0  3.116242  0  0  -0.60235  0  3.359913  0  0  -0.624751  0  3.359227  0  0  -0.558666  -0.586834  0  3.359886  0
N  N35  1  0.12582747  0.91464414  0.84048716  1  0  -0.636193  0  3.116084  0  0  -0.602226  0  3.359744  0  0  -0.624625  0  3.359055  0  0  -0.558587  -0.586709  0  3.359723  0
N  N36  1  0.45663427  0.26817442  0.16512588  1  0  -0.294926  0  3.399695  0  0  -0.240465  0  3.642812  0  0  -0.255484  0  3.655927  0  0  -0.369287  -0.230427  0  3.634077  0
N  N37  1  0.54339780  0.73183941  0.83488220  1  0  -0.294854  0  3.399817  0  0  -0.240252  0  3.642879  0  0  -0.255298  0  3.656027  0  0  -0.369205  -0.230217  0  3.634138  0
N  N38  1  0.28814529  0.33567271  0.97362637  1  0  -0.433546  0  3.007512  0  0  -0.379114  0  3.266962  0  0  -0.397811  0  3.276331  0  0  -0.323135  -0.366443  0  3.260524  0
N  N39  1  0.71190663  0.66434548  0.02637730  1  0  -0.433504  0  3.00758  0  0  -0.379211  0  3.266957  0  0  -0.397913  0  3.276335  0  0  -0.323081  -0.366542  0  3.260524  0
O  O40  1  0.27581134  0.07606912  0.45760761  1  0  -0.59197  0  2.02  0  0  -0.535835  0  2.266635  0  0  -0.561071  0  2.255786  0  0  -0.324627  -0.517609  0  2.273211  0
O  O41  1  0.72418459  0.92394918  0.54236459  1  0  -0.592043  0  2.020792  0  0  -0.535873  0  2.267368  0  0  -0.561106  0  2.256521  0  0  -0.324712  -0.517649  0  2.273943  0
O  O42  1  0.10461990  0.85954241  0.42457094  1  0  -0.590698  0  2.039866  0  0  -0.534674  0  2.283686  0  0  -0.560467  0  2.273699  0  0  -0.321458  -0.516557  0  2.290073  0
O  O43  1  0.89533446  0.14047722  0.57539327  1  0  -0.591156  0  2.03898  0  0  -0.535178  0  2.28281  0  0  -0.560972  0  2.272815  0  0  -0.321729  -0.517053  0  2.289192  0
O  O44  1  0.67849496  0.42689739  0.62277730  1  0  -0.606429  0  2.09712  0  0  -0.536245  0  2.333853  0  0  -0.564124  0  2.323321  0  0  -0.304159  -0.516718  0  2.341107  0
O  O45  1  0.32145797  0.57309994  0.37727937  1  0  -0.606446  0  2.097607  0  0  -0.536143  0  2.334296  0  0  -0.563998  0  2.323702  0  0  -0.30424  -0.516617  0  2.341545  0
O  O46  1  0.79167464  0.62402597  0.57670493  1  0  -0.588966  0  1.984654  0  0  -0.538017  0  2.225916  0  0  -0.561422  0  2.214882  0  0  -0.322552  -0.521432  0  2.233427  0
O  O47  1  0.20830616  0.37594214  0.42330109  1  0  -0.588813  0  1.983939  0  0  -0.537912  0  2.225291  0  0  -0.561325  0  2.214254  0  0  -0.322432  -0.521324  0  2.232798  0
O  O48  1  0.17961645  0.44446311  0.75099421  1  0  -0.834029  0  1.881391  0  0  -0.773935  0  2.082516  0  0  -0.797754  0  2.049171  0  0  -0.596886  -0.75686  0  2.105911  0
O  O49  1  0.82032113  0.55553116  0.24898893  1  0  -0.834319  0  1.881126  0  0  -0.774158  0  2.082353  0  0  -0.79798  0  2.048986  0  0  -0.59697  -0.757082  0  2.105749  0
