# generated using pymatgen
data_ErH8C3N9O5
_symmetry_space_group_name_H-M   'P 1'
_cell_length_a   6.81289896
_cell_length_b   6.32343233
_cell_length_c   8.10235366
_cell_angle_alpha   103.24472609
_cell_angle_beta   106.29943730
_cell_angle_gamma   119.92122332
_symmetry_Int_Tables_number   1
_chemical_formula_structural   ErH8C3N9O5
_chemical_formula_sum   'Er1 H8 C3 N9 O5'
_cell_volume   260.22432780
_cell_formula_units_Z   1
loop_
 _symmetry_equiv_pos_site_id
 _symmetry_equiv_pos_as_xyz
  1  'x, y, z'
loop_
 _atom_site_type_symbol
 _atom_site_label
 _atom_site_symmetry_multiplicity
 _atom_site_fract_x
 _atom_site_fract_y
 _atom_site_fract_z
 _atom_site_occupancy
 _atom_site_hle17_bader_spin_density
 _atom_site_hle17_ddec_charge
 _atom_site_hle17_ddec_spin_density
 _atom_site_hle17_ddec_sum_bond_order
 _atom_site_hle17_magmom
 _atom_site_hse06_10hf_bader_spin_density
 _atom_site_hse06_10hf_ddec_charge
 _atom_site_hse06_10hf_ddec_spin_density
 _atom_site_hse06_10hf_ddec_sum_bond_order
 _atom_site_hse06_10hf_magmom
 _atom_site_hse06_bader_spin_density
 _atom_site_hse06_ddec_charge
 _atom_site_hse06_ddec_spin_density
 _atom_site_hse06_ddec_sum_bond_order
 _atom_site_hse06_magmom
 _atom_site_pbe_bader_spin_density
 _atom_site_pbe_cm5_charge
 _atom_site_pbe_ddec_charge
 _atom_site_pbe_ddec_spin_density
 _atom_site_pbe_ddec_sum_bond_order
 _atom_site_pbe_magmom
Er  Er0  1  0.51584659  0.52140526  0.07224311  1  0  2.222726  0  1.684276  0  0  2.062991  0  2.175101  0  0  2.109897  0  2.133005  0  0  1.519744  2.025139  0  2.210075  0
H  H1  1  0.39418403  0.26585618  0.64782635  1  0  0.413453  0  0.890624  0  0  0.372013  0  0.972039  0  0  0.383609  0  0.955179  0  0  0.29665  0.363741  0  0.98401  0
H  H2  1  0.26289513  0.41320479  0.65140211  1  0  0.414662  0  0.887347  0  0  0.373583  0  0.968705  0  0  0.385343  0  0.951621  0  0  0.296815  0.36518  0  0.980847  0
H  H3  1  0.20621273  0.68718883  0.85951278  1  0  0.418883  0  0.896073  0  0  0.377051  0  0.977355  0  0  0.388952  0  0.960397  0  0  0.29354  0.368605  0  0.989345  0
H  H4  1  0.78298247  0.29562813  0.09516879  1  0  0.423941  0  0.880579  0  0  0.383529  0  0.960565  0  0  0.395608  0  0.942749  0  0  0.306714  0.374921  0  0.973208  0
H  H5  1  0.29395355  0.78386584  0.09123530  1  0  0.40133  0  0.922779  0  0  0.360669  0  1.006008  0  0  0.371594  0  0.989835  0  0  0.30175  0.352937  0  1.017373  0
H  H6  1  0.67006115  0.20544333  0.86165039  1  0  0.42327  0  0.88449  0  0  0.381796  0  0.96407  0  0  0.393821  0  0.947052  0  0  0.292876  0.373232  0  0.976158  0
H  H7  1  0.96547894  0.98900661  0.78043863  1  0  0.302139  0  0.942224  0  0  0.284159  0  1.005409  0  0  0.291106  0  0.9999  0  0  0.323962  0.279236  0  1.009244  0
H  H8  1  0.95840907  0.74840409  0.95103302  1  0  0.000804  0  0.956764  0  0  0.010011  0  1.029333  0  0  0.010892  0  1.023702  0  0  0.122204  0.009094  0  1.033561  0
C  C9  1  0.67505714  0.90388711  0.54717868  1  0  0.528882  0  3.832687  0  0  0.477764  0  4.121721  0  0  0.498467  0  4.131427  0  0  0.340583  0.463788  0  4.114795  0
C  C10  1  0.89547948  0.69767854  0.55108120  1  0  0.527918  0  3.842179  0  0  0.474985  0  4.133871  0  0  0.495924  0  4.143787  0  0  0.338827  0.460898  0  4.126725  0
C  C11  1  0.00362047  0.93958375  0.04758052  1  0  0.653153  0  3.863475  0  0  0.580768  0  4.172038  0  0  0.615695  0  4.158531  0  0  0.173528  0.556751  0  4.180514  0
N  N12  1  0.53872437  0.80373606  0.35684937  1  0  -0.511491  0  3.092187  0  0  -0.469279  0  3.387865  0  0  -0.486779  0  3.401867  0  0  -0.316488  -0.456931  0  3.377887  0
N  N13  1  0.79654682  0.55568697  0.36127137  1  0  -0.535832  0  3.114434  0  0  -0.493156  0  3.414069  0  0  -0.512308  0  3.429433  0  0  -0.328085  -0.479653  0  3.403082  0
N  N14  1  0.40382074  0.90689677  0.33826063  1  0  -0.071134  0  3.06669  0  0  -0.052142  0  3.361527  0  0  -0.054051  0  3.374707  0  0  -0.087359  -0.050582  0  3.352318  0
N  N15  1  0.90434342  0.42413802  0.34641861  1  0  -0.045786  0  3.054354  0  0  -0.031395  0  3.352169  0  0  -0.030898  0  3.362739  0  0  -0.080985  -0.031509  0  3.344823  0
N  N16  1  0.45827582  0.05846269  0.50792411  1  0  -0.064974  0  3.040859  0  0  -0.046711  0  3.328886  0  0  -0.046583  0  3.340901  0  0  -0.080769  -0.046564  0  3.320817  0
N  N17  1  0.05754700  0.48570541  0.51719471  1  0  -0.061275  0  3.029157  0  0  -0.042306  0  3.317393  0  0  -0.042352  0  3.328318  0  0  -0.078009  -0.042116  0  3.310155  0
N  N18  1  0.62837593  0.06103245  0.64422363  1  0  -0.368297  0  2.982938  0  0  -0.323362  0  3.251109  0  0  -0.33975  0  3.262663  0  0  -0.221495  -0.312422  0  3.243455  0
N  N19  1  0.05798517  0.65872815  0.65105188  1  0  -0.382961  0  3.007402  0  0  -0.338382  0  3.281319  0  0  -0.355545  0  3.293307  0  0  -0.226411  -0.326893  0  3.273295  0
N  N20  1  0.84312029  0.86065388  0.63782146  1  0  -0.488382  0  3.368551  0  0  -0.431866  0  3.610942  0  0  -0.452079  0  3.614929  0  0  -0.393472  -0.417659  0  3.607614  0
O  O21  1  0.17092998  0.15975269  0.04951944  1  0  -0.736057  0  2.078701  0  0  -0.675909  0  2.354033  0  0  -0.700689  0  2.338433  0  0  -0.425095  -0.657557  0  2.364194  0
O  O22  1  0.88010117  0.92158095  0.13976893  1  0  -0.657541  0  2.069945  0  0  -0.607583  0  2.33446  0  0  -0.632199  0  2.324083  0  0  -0.383046  -0.589564  0  2.341018  0
O  O23  1  0.37354061  0.38224740  0.73698328  1  0  -0.908129  0  1.89942  0  0  -0.846449  0  2.11366  0  0  -0.866361  0  2.079837  0  0  -0.638108  -0.831604  0  2.137437  0
O  O24  1  0.28967836  0.67345736  0.97872552  1  0  -0.946864  0  1.971669  0  0  -0.889373  0  2.199774  0  0  -0.909344  0  2.165656  0  0  -0.679513  -0.874396  0  2.223522  0
O  O25  1  0.67641228  0.30035142  0.98483624  1  0  -0.952438  0  1.944648  0  0  -0.891405  0  2.170845  0  0  -0.911969  0  2.135146  0  0  -0.668356  -0.87607  0  2.195778  0
