# generated using pymatgen
data_FeH16(C12N5)2
_symmetry_space_group_name_H-M   'P 1'
_cell_length_a   16.06537356
_cell_length_b   17.95472896
_cell_length_c   17.95465914
_cell_angle_alpha   111.50904408
_cell_angle_beta   107.36990760
_cell_angle_gamma   107.37003299
_symmetry_Int_Tables_number   1
_chemical_formula_structural   FeH16(C12N5)2
_chemical_formula_sum   'Fe6 H96 C144 N60'
_cell_volume   4084.39836904
_cell_formula_units_Z   6
loop_
 _symmetry_equiv_pos_site_id
 _symmetry_equiv_pos_as_xyz
  1  'x, y, z'
loop_
 _atom_site_type_symbol
 _atom_site_label
 _atom_site_symmetry_multiplicity
 _atom_site_fract_x
 _atom_site_fract_y
 _atom_site_fract_z
 _atom_site_occupancy
 _atom_site_pbe_bader_charge
 _atom_site_pbe_bader_spin_density
 _atom_site_pbe_cm5_charge
 _atom_site_pbe_ddec_charge
 _atom_site_pbe_ddec_spin_density
 _atom_site_pbe_ddec_sum_bond_order
 _atom_site_pbe_magmom
Fe  Fe0  1  0.99999529  0.49999636  0.49999651  1  1.129132  0  0.795472  0.283839  0  3.775999  0
Fe  Fe1  1  0.49999895  0.50000192  0.99999965  1  1.133963  0  0.795217  0.285868  0  3.771627  0
Fe  Fe2  1  0.49999855  0.99999973  0.50000261  1  1.12971  0  0.795011  0.284247  0  3.77551  0
Fe  Fe3  1  0.00000146  0.00000090  0.49999834  1  1.133989  0  0.795264  0.285892  0  3.771682  0
Fe  Fe4  1  0.00000038  0.49999736  0.00000062  1  1.129873  0  0.795014  0.2843  0  3.775545  0
Fe  Fe5  1  0.50000471  0.50000371  0.50000311  1  1.129141  0  0.795449  0.28387  0  3.775868  0
H  H6  1  0.91019125  0.19574725  0.25929964  1  0.122572  0  0.110375  0.119299  0  1.009061  0
H  H7  1  0.65118886  0.74085696  0.93669407  1  0.103328  0  0.11023  0.119526  0  1.008738  0
H  H8  1  0.71452111  0.06361814  0.80430005  1  0.10385  0  0.110149  0.119014  0  1.009668  0
H  H9  1  0.84881089  0.06330739  0.25914595  1  0.102735  0  0.110238  0.119545  0  1.00875  0
H  H10  1  0.78547466  0.19569852  0.93638480  1  0.104003  0  0.110146  0.119005  0  1.009654  0
H  H11  1  0.58981205  0.74070558  0.80425224  1  0.122434  0  0.110373  0.119339  0  1.009014  0
H  H12  1  0.08980521  0.80424602  0.74069460  1  0.122669  0  0.110376  0.119314  0  1.009025  0
H  H13  1  0.34880348  0.25914373  0.06330124  1  0.103562  0  0.110208  0.1195  0  1.008768  0
H  H14  1  0.28547806  0.93638052  0.19570636  1  0.103977  0  0.110136  0.119016  0  1.009639  0
H  H15  1  0.15119955  0.93670341  0.74085678  1  0.10364  0  0.110223  0.119519  0  1.008787  0
H  H16  1  0.21452606  0.80429542  0.06361639  1  0.104084  0  0.110135  0.118992  0  1.009631  0
H  H17  1  0.41019635  0.25929983  0.19575075  1  0.122985  0  0.110375  0.119326  0  1.009029  0
H  H18  1  0.00147566  0.24696870  0.17989413  1  0.08358  0  0.110651  0.107756  0  0.974087  0
H  H19  1  0.82203286  0.82022594  0.06731920  1  0.069393  0  0.110501  0.107583  0  0.973359  0
H  H20  1  0.75470243  0.93310020  0.75309637  1  0.073463  0  0.110709  0.107817  0  0.97367  0
H  H21  1  0.67796323  0.93268079  0.17977766  1  0.069452  0  0.110509  0.107632  0  0.973337  0
H  H22  1  0.74529445  0.24690706  0.06690479  1  0.07374  0  0.110724  0.107779  0  0.973605  0
H  H23  1  0.49852397  0.82010696  0.75302757  1  0.083711  0  0.110674  0.107812  0  0.974095  0
H  H24  1  0.99851916  0.75302390  0.82010110  1  0.083721  0  0.110661  0.107809  0  0.974071  0
H  H25  1  0.17796140  0.17977339  0.93266666  1  0.06977  0  0.11053  0.10756  0  0.973392  0
H  H26  1  0.24529573  0.06689645  0.24690680  1  0.07351  0  0.110717  0.107845  0  0.973697  0
H  H27  1  0.32204312  0.06733876  0.82022663  1  0.069563  0  0.110573  0.107597  0  0.973317  0
H  H28  1  0.25470011  0.75308890  0.93309718  1  0.073498  0  0.110703  0.107776  0  0.973767  0
H  H29  1  0.50148247  0.17989844  0.24697601  1  0.083689  0  0.110665  0.107844  0  0.974099  0
H  H30  1  0.09911495  0.41380445  0.24473735  1  0.091429  0  0.101108  0.105741  0  1.038638  0
H  H31  1  0.85482239  0.75530473  0.16920281  1  0.09602  0  0.100884  0.105744  0  1.039984  0
H  H32  1  0.68541988  0.83100837  0.58626642  1  0.106498  0  0.100847  0.105372  0  1.039185  0
H  H33  1  0.64518278  0.83080178  0.24470366  1  0.096025  0  0.100869  0.105744  0  1.040062  0
H  H34  1  0.81458127  0.41373531  0.16899413  1  0.106477  0  0.100826  0.105349  0  1.039187  0
H  H35  1  0.40088229  0.75525889  0.58619000  1  0.091592  0  0.101106  0.105702  0  1.038699  0
H  H36  1  0.90088243  0.58618545  0.75525702  1  0.091393  0  0.101128  0.105772  0  1.038646  0
H  H37  1  0.14517942  0.24469798  0.83078629  1  0.096025  0  0.100913  0.105752  0  1.040046  0
H  H38  1  0.31457636  0.16899096  0.41373165  1  0.106444  0  0.100828  0.105372  0  1.039168  0
H  H39  1  0.35481829  0.16921508  0.75529601  1  0.095048  0  0.1009  0.105727  0  1.040096  0
H  H40  1  0.18541987  0.58626470  0.83100662  1  0.106484  0  0.100836  0.1054  0  1.039149  0
H  H41  1  0.59912052  0.24474315  0.41381360  1  0.091388  0  0.101149  0.10581  0  1.038626  0
H  H42  1  0.10057126  0.52160474  0.38233819  1  0.168446  0  0.114942  0.07659  0  1.086156  0
H  H43  1  0.71849056  0.61767012  0.13926489  1  0.166012  0  0.115347  0.07723  0  1.085873  0
H  H44  1  0.57906775  0.86074810  0.47845300  1  0.170883  0  0.114928  0.076842  0  1.087032  0
H  H45  1  0.78151503  0.86073593  0.38233421  1  0.165947  0  0.115372  0.077243  0  1.085815  0
H  H46  1  0.92093404  0.52154474  0.13925095  1  0.170918  0  0.114925  0.07685  0  1.087061  0
H  H47  1  0.39942560  0.61765975  0.47839198  1  0.168529  0  0.11494  0.076606  0  1.086183  0
H  H48  1  0.89942419  0.47838651  0.61765559  1  0.168397  0  0.114933  0.076572  0  1.086218  0
H  H49  1  0.28150580  0.38233730  0.86073285  1  0.165765  0  0.115321  0.0772  0  1.085896  0
H  H50  1  0.42092986  0.13925528  0.52155083  1  0.171015  0  0.114946  0.076921  0  1.087009  0
H  H51  1  0.21848906  0.13926611  0.61765748  1  0.165652  0  0.115297  0.077129  0  1.085926  0
H  H52  1  0.07906539  0.47845056  0.86074761  1  0.170812  0  0.114915  0.076807  0  1.087073  0
H  H53  1  0.60057853  0.38234364  0.52161192  1  0.168405  0  0.114951  0.076616  0  1.086153  0
H  H54  1  0.24234787  0.92058867  0.60422603  1  0.115429  0  0.103182  0.113294  0  1.045114  0
H  H55  1  0.63809401  0.39571840  0.31616040  1  0.096113  0  0.103432  0.11325  0  1.044128  0
H  H56  1  0.32215621  0.68383588  0.07959215  1  0.091576  0  0.103069  0.113376  0  1.04395  0
H  H57  1  0.86190771  0.68384004  0.60427971  1  0.096131  0  0.103427  0.113269  0  1.044135  0
H  H58  1  0.17784836  0.92041474  0.31617005  1  0.091588  0  0.103015  0.113287  0  1.044052  0
H  H59  1  0.25765247  0.39577509  0.07941227  1  0.115472  0  0.103187  0.113301  0  1.045094  0
H  H60  1  0.75765056  0.07940461  0.39577765  1  0.115346  0  0.103185  0.113272  0  1.045116  0
H  H61  1  0.36189662  0.60427757  0.68383328  1  0.096121  0  0.103434  0.113276  0  1.044117  0
H  H62  1  0.67785028  0.31617222  0.92041856  1  0.09154  0  0.10301  0.113243  0  1.044072  0
H  H63  1  0.13809970  0.31616469  0.39572109  1  0.096215  0  0.103427  0.113255  0  1.044118  0
H  H64  1  0.82214781  0.07958056  0.68382430  1  0.091581  0  0.103037  0.113282  0  1.044078  0
H  H65  1  0.74235225  0.60422425  0.92059364  1  0.115363  0  0.103221  0.113337  0  1.045108  0
H  H66  1  0.36520854  0.01909091  0.58080832  1  0.112268  0  0.119085  0.087076  0  1.034334  0
H  H67  1  0.78439578  0.41913190  0.43811052  1  0.111305  0  0.119357  0.087569  0  1.034053  0
H  H68  1  0.34642392  0.56187495  0.98103922  1  0.092809  0  0.118735  0.087221  0  1.033855  0
H  H69  1  0.71560224  0.56188444  0.58086070  1  0.111365  0  0.119353  0.087561  0  1.034027  0
H  H70  1  0.15357799  0.01896704  0.43812995  1  0.092682  0  0.118741  0.087222  0  1.033808  0
H  H71  1  0.13479369  0.41919525  0.98091328  1  0.112341  0  0.11913  0.087118  0  1.034348  0
H  H72  1  0.63479225  0.98090708  0.41919994  1  0.112197  0  0.119072  0.087097  0  1.03436  0
H  H73  1  0.21559537  0.58085598  0.56187865  1  0.111314  0  0.119307  0.087517  0  1.034024  0
H  H74  1  0.65358228  0.43813517  0.01896658  1  0.092675  0  0.118721  0.087178  0  1.033856  0
H  H75  1  0.28440255  0.43811894  0.41914504  1  0.111412  0  0.119308  0.087512  0  1.034023  0
H  H76  1  0.84641824  0.98103229  0.56186645  1  0.092688  0  0.118749  0.087214  0  1.033784  0
H  H77  1  0.86520604  0.58079803  0.01908796  1  0.112291  0  0.119105  0.087153  0  1.034323  0
H  H78  1  0.38875121  0.80122518  0.41522011  1  0.111372  0  0.121526  0.092014  0  1.035153  0
H  H79  1  0.97375450  0.58465158  0.38591842  1  0.091591  0  0.121922  0.092215  0  1.034086  0
H  H80  1  0.58795325  0.61407429  0.19888619  1  0.116979  0  0.121953  0.09293  0  1.033766  0
H  H81  1  0.52624784  0.61408473  0.41534384  1  0.091558  0  0.1219  0.092227  0  1.034092  0
H  H82  1  0.91204409  0.80111599  0.38592483  1  0.116947  0  0.12194  0.092941  0  1.033753  0
H  H83  1  0.11124566  0.58477522  0.19877233  1  0.111487  0  0.121536  0.092023  0  1.035252  0
H  H84  1  0.61124796  0.19877349  0.58478129  1  0.116817  0  0.121601  0.092181  0  1.035191  0
H  H85  1  0.02623763  0.41533697  0.61407183  1  0.091275  0  0.121963  0.092355  0  1.03408  0
H  H86  1  0.41205283  0.38592909  0.80111321  1  0.117009  0  0.121921  0.092905  0  1.033817  0
H  H87  1  0.47376058  0.38592202  0.58466131  1  0.091417  0  0.121956  0.092345  0  1.034068  0
H  H88  1  0.08794960  0.19888738  0.61407183  1  0.116972  0  0.121936  0.0929  0  1.033827  0
H  H89  1  0.88874624  0.41521805  0.80122515  1  0.111254  0  0.121513  0.092086  0  1.035151  0
H  H90  1  0.26114870  0.69433401  0.42689244  1  0.085423  0  0.107989  0.11413  0  1.017767  0
H  H91  1  0.83447282  0.57295372  0.26733284  1  0.078104  0  0.108223  0.11388  0  1.018628  0
H  H92  1  0.56729213  0.73269367  0.30581978  1  0.08922  0  0.107921  0.113703  0  1.01942  0
H  H93  1  0.66553644  0.73267453  0.42705144  1  0.078061  0  0.108221  0.113888  0  1.018772  0
H  H94  1  0.93270729  0.69418156  0.26730787  1  0.089033  0  0.107922  0.113679  0  1.019414  0
H  H95  1  0.23885083  0.57310501  0.30566511  1  0.085549  0  0.107959  0.11407  0  1.017843  0
H  H96  1  0.73885136  0.30565994  0.57310523  1  0.085682  0  0.107884  0.11393  0  1.017955  0
H  H97  1  0.16552143  0.42704427  0.73266366  1  0.078063  0  0.108234  0.113925  0  1.018673  0
H  H98  1  0.43271650  0.26730567  0.69418215  1  0.089436  0  0.107941  0.113766  0  1.019392  0
H  H99  1  0.33447030  0.26732885  0.57295259  1  0.078005  0  0.10825  0.113883  0  1.018791  0
H  H100  1  0.06728571  0.30581913  0.73269151  1  0.089421  0  0.107945  0.113747  0  1.019357  0
H  H101  1  0.76114508  0.42689366  0.69433764  1  0.085524  0  0.107933  0.114023  0  1.017851  0
C  C102  1  0.09415120  0.68929528  0.59226339  1  0.967878  0  0.197716  0.208768  0  4.090151  0
C  C103  1  0.50177127  0.40761536  0.09691048  1  0.988632  0  0.198554  0.210755  0  4.088921  0
C  C104  1  0.40506760  0.90301092  0.31072723  1  0.96189  0  0.198427  0.210275  0  4.09149  0
C  C105  1  0.99823051  0.90309031  0.59238470  1  0.98899  0  0.198563  0.210762  0  4.089004  0
C  C106  1  0.09493444  0.68927380  0.09699103  1  0.962379  0  0.198384  0.21018  0  4.091636  0
C  C107  1  0.40584844  0.40773553  0.31070223  1  0.967791  0  0.197678  0.208756  0  4.090201  0
C  C108  1  0.90584265  0.31069799  0.40773238  1  0.967674  0  0.197687  0.208848  0  4.090316  0
C  C109  1  0.49822372  0.59238802  0.90308541  1  0.988417  0  0.198529  0.210659  0  4.088973  0
C  C110  1  0.59492993  0.09698707  0.68927962  1  0.962653  0  0.198245  0.21007  0  4.091703  0
C  C111  1  0.00177429  0.09691442  0.40761430  1  0.988568  0  0.19853  0.210658  0  4.089051  0
C  C112  1  0.90507116  0.31071947  0.90301456  1  0.962533  0  0.198355  0.210283  0  4.091592  0
C  C113  1  0.59416034  0.59227324  0.68930321  1  0.968005  0  0.197602  0.208826  0  4.09041  0
C  C114  1  0.82258623  0.26060439  0.46395813  1  0.962649  0  0.191392  0.233468  0  4.108975  0
C  C115  1  0.35861143  0.53610046  0.79674527  1  0.951594  0  0.192479  0.234776  0  4.108062  0
C  C116  1  0.56163380  0.20325187  0.73927671  1  0.954056  0  0.191748  0.234705  0  4.105777  0
C  C117  1  0.14138395  0.20325323  0.46389887  1  0.951789  0  0.192466  0.234785  0  4.108177  0
C  C118  1  0.93836799  0.26072402  0.79674991  1  0.95369  0  0.191708  0.2346  0  4.105941  0
C  C119  1  0.67741541  0.53604490  0.73939532  1  0.962638  0  0.191289  0.233424  0  4.108935  0
C  C120  1  0.17741221  0.73939023  0.53603992  1  0.962376  0  0.191368  0.233501  0  4.108669  0
C  C121  1  0.64138132  0.46390494  0.20325411  1  0.951152  0  0.192477  0.234829  0  4.108122  0
C  C122  1  0.43837325  0.79674949  0.26073223  1  0.953565  0  0.191833  0.234885  0  4.105459  0
C  C123  1  0.85862148  0.79675016  0.53610259  1  0.951288  0  0.192464  0.234806  0  4.108158  0
C  C124  1  0.06162785  0.73927060  0.20325079  1  0.953681  0  0.191839  0.234889  0  4.105597  0
C  C125  1  0.32258807  0.46395849  0.26060784  1  0.96315  0  0.191428  0.233719  0  4.108565  0
C  C126  1  0.04358586  0.66915777  0.64164424  1  0.471638  0  0.121609  0.155399  0  3.979808  0
C  C127  1  0.40173199  0.35817733  0.02732327  1  0.459079  0  0.121301  0.153816  0  3.981269  0
C  C128  1  0.37451509  0.97249423  0.33080555  1  0.434247  0  0.121197  0.154916  0  3.978865  0
C  C129  1  0.09826986  0.97267755  0.64182022  1  0.458988  0  0.121379  0.15397  0  3.981276  0
C  C130  1  0.12548783  0.66919831  0.02750800  1  0.434255  0  0.121204  0.154992  0  3.978759  0
C  C131  1  0.45641338  0.35835431  0.33083962  1  0.471487  0  0.121632  0.15539  0  3.979653  0
C  C132  1  0.95640932  0.33083685  0.35835294  1  0.472324  0  0.121538  0.155258  0  3.979701  0
C  C133  1  0.59826494  0.64182471  0.97267264  1  0.459567  0  0.12135  0.153948  0  3.981212  0
C  C134  1  0.62548510  0.02750646  0.66920243  1  0.434228  0  0.121267  0.155078  0  3.978541  0
C  C135  1  0.90173493  0.02732718  0.35817654  1  0.459572  0  0.121313  0.153899  0  3.981334  0
C  C136  1  0.87451388  0.33079631  0.97249538  1  0.434346  0  0.121258  0.155022  0  3.978507  0
C  C137  1  0.54359502  0.64165110  0.66916225  1  0.471894  0  0.121573  0.155222  0  3.979864  0
C  C138  1  0.95232138  0.26661501  0.28220646  1  -0.041005  0  -0.078967  -0.151976  0  3.97253  0
C  C139  1  0.67042318  0.71798037  0.98467113  1  0.012242  0  -0.079133  -0.152516  0  3.972769  0
C  C140  1  0.68572216  0.01562953  0.73341582  1  -0.01526  0  -0.078574  -0.151658  0  3.971419  0
C  C141  1  0.82957790  0.01532985  0.28202257  1  0.012869  0  -0.079181  -0.152541  0  3.972824  0
C  C142  1  0.81427422  0.26658269  0.98437000  1  -0.015267  0  -0.078561  -0.151675  0  3.971288  0
C  C143  1  0.54767932  0.71779638  0.73338335  1  -0.040754  0  -0.079051  -0.152125  0  3.972638  0
C  C144  1  0.04767180  0.73337691  0.71778864  1  -0.040842  0  -0.079051  -0.152082  0  3.972874  0
C  C145  1  0.32957403  0.28201964  0.01532077  1  0.012572  0  -0.079168  -0.152546  0  3.97286  0
C  C146  1  0.31428159  0.98437048  0.26658729  1  -0.014745  0  -0.078529  -0.151578  0  3.971273  0
C  C147  1  0.17043092  0.98468162  0.71797941  1  0.012594  0  -0.079258  -0.152672  0  3.972961  0
C  C148  1  0.18572195  0.73341261  0.01563048  1  -0.014776  0  -0.078582  -0.151638  0  3.971299  0
C  C149  1  0.45232713  0.28220902  0.26662079  1  -0.04089  0  -0.079037  -0.152044  0  3.972773  0
C  C150  1  0.00334628  0.29544041  0.23963851  1  -0.102145  0  -0.073351  -0.044605  0  4.013262  0
C  C151  1  0.76409411  0.76051876  0.05606676  1  -0.053111  0  -0.073166  -0.044261  0  4.010971  0
C  C152  1  0.70801902  0.94430090  0.70460169  1  -0.029155  0  -0.073495  -0.044546  0  4.011875  0
C  C153  1  0.73590695  0.94393420  0.23948438  1  -0.053032  0  -0.073193  -0.044394  0  4.01093  0
C  C154  1  0.79197967  0.29540040  0.05570304  1  -0.05573  0  -0.07348  -0.044402  0  4.011677  0
C  C155  1  0.49665327  0.76036264  0.70455646  1  -0.10208  0  -0.073413  -0.044722  0  4.013221  0
C  C156  1  0.99665149  0.70455286  0.76035831  1  -0.101684  0  -0.073481  -0.044865  0  4.013168  0
C  C157  1  0.23590409  0.23948193  0.94392343  1  -0.05331  0  -0.073235  -0.044234  0  4.01106  0
C  C158  1  0.29198772  0.05570248  0.29540234  1  -0.029526  0  -0.073535  -0.044628  0  4.011919  0
C  C159  1  0.26409764  0.05607794  0.76051617  1  -0.053053  0  -0.073275  -0.04429  0  4.010984  0
C  C160  1  0.20801492  0.70459826  0.94429769  1  -0.029528  0  -0.07347  -0.044475  0  4.011798  0
C  C161  1  0.50334989  0.23964141  0.29544686  1  -0.101851  0  -0.073508  -0.044971  0  4.013246  0
C  C162  1  0.05773689  0.38797579  0.27549089  1  0.018856  0  -0.092123  -0.135525  0  3.990013  0
C  C163  1  0.78263595  0.72459062  0.11264302  1  -0.045363  0  -0.091836  -0.134691  0  3.988073  0
C  C164  1  0.66985434  0.88758297  0.61207493  1  -0.059577  0  -0.091667  -0.134549  0  3.990104  0
C  C165  1  0.71736901  0.88735844  0.27541467  1  -0.046242  0  -0.091774  -0.134662  0  3.987982  0
C  C166  1  0.83014503  0.38792506  0.11241831  1  -0.033257  0  -0.091655  -0.134565  0  3.990118  0
C  C167  1  0.44226341  0.72451030  0.61202085  1  0.018602  0  -0.092013  -0.135291  0  3.989848  0
C  C168  1  0.94225888  0.61201479  0.72450385  1  0.018622  0  -0.091988  -0.135299  0  3.989678  0
C  C169  1  0.21736421  0.27541007  0.88734657  1  -0.046287  0  -0.091689  -0.134579  0  3.988008  0
C  C170  1  0.33014880  0.11241974  0.38792790  1  -0.059764  0  -0.091643  -0.134503  0  3.990093  0
C  C171  1  0.28263432  0.11265640  0.72458765  1  -0.045426  0  -0.091698  -0.134525  0  3.988041  0
C  C172  1  0.16985146  0.61206956  0.88758089  1  -0.059624  0  -0.091655  -0.134614  0  3.990125  0
C  C173  1  0.55774205  0.27549443  0.38798500  1  0.018684  0  -0.091983  -0.13528  0  3.989726  0
C  C174  1  0.05912102  0.44870022  0.35195948  1  0.401751  0  0.040651  0.074374  0  3.908056  0
C  C175  1  0.70744404  0.64811676  0.09683327  1  0.397362  0  0.040387  0.072745  0  3.908524  0
C  C176  1  0.61046647  0.90330038  0.55134517  1  0.385631  0  0.039933  0.072806  0  3.90998  0
C  C177  1  0.79255890  0.90316805  0.35188967  1  0.398358  0  0.0404  0.072853  0  3.908297  0
C  C178  1  0.88953407  0.44865394  0.09670012  1  0.385559  0  0.039914  0.072794  0  3.909961  0
C  C179  1  0.44087738  0.64803885  0.55129584  1  0.401821  0  0.040643  0.074335  0  3.908183  0
C  C180  1  0.94087281  0.55129170  0.64803412  1  0.402241  0  0.040575  0.074248  0  3.908406  0
C  C181  1  0.29255715  0.35188730  0.90315951  1  0.398303  0  0.04036  0.072754  0  3.908616  0
C  C182  1  0.38953638  0.09670436  0.44866166  1  0.385531  0  0.039891  0.072638  0  3.909997  0
C  C183  1  0.20744304  0.09684139  0.64810918  1  0.398222  0  0.040383  0.072795  0  3.908659  0
C  C184  1  0.11046471  0.55134135  0.90329827  1  0.385621  0  0.03999  0.072929  0  3.909892  0
C  C185  1  0.55912905  0.35196520  0.44870780  1  0.402107  0  0.040578  0.074231  0  3.90836  0
C  C186  1  0.75695041  0.20113200  0.48079959  1  -0.04061  0  0.009838  0.07052  0  4.023413  0
C  C187  1  0.27604863  0.51924765  0.72043133  1  -0.005657  0  0.010352  0.071573  0  4.022593  0
C  C188  1  0.55538081  0.27953359  0.79871768  1  -0.023198  0  0.009747  0.071518  0  4.01991  0
C  C189  1  0.22394646  0.27956292  0.48074846  1  -0.005388  0  0.010378  0.071534  0  4.022631  0
C  C190  1  0.94461867  0.20128416  0.72046679  1  -0.02284  0  0.009792  0.071585  0  4.01979  0
C  C191  1  0.74304899  0.51920102  0.79886545  1  -0.040564  0  0.009783  0.070501  0  4.023188  0
C  C192  1  0.24304736  0.79886127  0.51919890  1  -0.0392  0  0.009857  0.070499  0  4.023194  0
C  C193  1  0.72394367  0.48075034  0.27956409  1  0.024045  0  0.010296  0.071511  0  4.022429  0
C  C194  1  0.44462596  0.72047114  0.20128964  1  -0.022972  0  0.009889  0.071739  0  4.019752  0
C  C195  1  0.77605866  0.72044114  0.51925594  1  -0.005176  0  0.010368  0.071562  0  4.022398  0
C  C196  1  0.05537590  0.79871315  0.27952898  1  -0.02305  0  0.009815  0.07161  0  4.019794  0
C  C197  1  0.25695152  0.48080034  0.20113896  1  -0.039212  0  0.00984  0.070442  0  4.023186  0
C  C198  1  0.72743629  0.10819508  0.43893970  1  -0.009678  0  -0.084795  -0.158174  0  3.941211  0
C  C199  1  0.28845782  0.56111014  0.66941320  1  0.007424  0  -0.085672  -0.15836  0  3.939892  0
C  C200  1  0.61883808  0.33057141  0.89165028  1  0.063633  0  -0.084778  -0.158423  0  3.938651  0
C  C201  1  0.21153714  0.33058096  0.43888634  1  0.007362  0  -0.08568  -0.158363  0  3.939883  0
C  C202  1  0.88116281  0.10835022  0.66942867  1  0.063747  0  -0.084866  -0.158573  0  3.938633  0
C  C203  1  0.77256441  0.56106056  0.89180299  1  -0.009264  0  -0.084797  -0.15828  0  3.941044  0
C  C204  1  0.27256083  0.89179819  0.56106307  1  -0.009365  0  -0.084773  -0.15829  0  3.940987  0
C  C205  1  0.71153282  0.43888583  0.33058160  1  0.007454  0  -0.085631  -0.158222  0  3.939804  0
C  C206  1  0.38116839  0.66943534  0.10835714  1  0.063855  0  -0.085008  -0.158843  0  3.938916  0
C  C207  1  0.78846827  0.66942107  0.56111740  1  0.007488  0  -0.085621  -0.158281  0  3.939829  0
C  C208  1  0.11883437  0.89164710  0.33056724  1  0.063694  0  -0.08484  -0.158599  0  3.938734  0
C  C209  1  0.22743802  0.43893811  0.10820318  1  -0.009428  0  -0.084726  -0.158225  0  3.940988  0
C  C210  1  0.65818095  0.05302153  0.45126420  1  0.454912  0  0.038289  0.07282  0  3.923063  0
C  C211  1  0.20687735  0.54879143  0.60190004  1  0.404689  0  0.038419  0.071605  0  3.92336  0
C  C212  1  0.60482458  0.39810146  0.94684318  1  0.416998  0  0.039155  0.07212  0  3.921097  0
C  C213  1  0.29311853  0.39809235  0.45120383  1  0.404786  0  0.038398  0.071626  0  3.923252  0
C  C214  1  0.89517764  0.05315798  0.60190017  1  0.416956  0  0.039165  0.072143  0  3.9211  0
C  C215  1  0.84181762  0.54873394  0.94697468  1  0.454261  0  0.038262  0.072809  0  3.923198  0
C  C216  1  0.34181622  0.94697444  0.54873790  1  0.454024  0  0.038351  0.073078  0  3.922908  0
C  C217  1  0.79311221  0.45119847  0.39809001  1  0.405276  0  0.038204  0.071317  0  3.923464  0
C  C218  1  0.39517866  0.60190664  0.05316332  1  0.416849  0  0.039198  0.072269  0  3.921195  0
C  C219  1  0.70688790  0.60191170  0.54880148  1  0.405375  0  0.038169  0.071331  0  3.92345  0
C  C220  1  0.10482122  0.94684271  0.39809465  1  0.416937  0  0.039152  0.072212  0  3.920947  0
C  C221  1  0.15818081  0.45125934  0.05302565  1  0.454117  0  0.038308  0.073033  0  3.922991  0
C  C222  1  0.35406713  0.82570928  0.45557202  1  0.431357  0  0.038306  0.071601  0  3.926128  0
C  C223  1  0.89868382  0.54431098  0.37003599  1  0.426021  0  0.038181  0.071497  0  3.926344  0
C  C224  1  0.52880387  0.62998224  0.17441865  1  0.442348  0  0.038001  0.070525  0  3.92493  0
C  C225  1  0.60131671  0.62996599  0.45568859  1  0.426158  0  0.038232  0.071462  0  3.926288  0
C  C226  1  0.97119538  0.82558351  0.37001972  1  0.442122  0  0.038064  0.070592  0  3.924791  0
C  C227  1  0.14592904  0.54442350  0.17428936  1  0.431319  0  0.038213  0.07142  0  3.926504  0
C  C228  1  0.64592742  0.17428668  0.54442771  1  0.425998  0  0.038095  0.071124  0  3.926601  0
C  C229  1  0.10130771  0.45568027  0.62995564  1  0.425898  0  0.03823  0.071418  0  3.926424  0
C  C230  1  0.47120088  0.37001980  0.82558269  1  0.442226  0  0.038038  0.070493  0  3.92486  0
C  C231  1  0.39868870  0.37003604  0.54431404  1  0.426197  0  0.038206  0.071422  0  3.926314  0
C  C232  1  0.02879926  0.17441785  0.62997756  1  0.442332  0  0.038026  0.070493  0  3.924961  0
C  C233  1  0.85406812  0.45557246  0.82571051  1  0.431579  0  0.038278  0.071376  0  3.926306  0
C  C234  1  0.28320052  0.76619811  0.46260906  1  -0.0216  0  -0.087429  -0.173589  0  3.979403  0
C  C235  1  0.82076528  0.53727858  0.30348602  1  -0.021875  0  -0.08838  -0.174259  0  3.980927  0
C  C236  1  0.51747720  0.69654878  0.23394724  1  -0.064529  0  -0.087215  -0.173887  0  3.979416  0
C  C237  1  0.67923755  0.69652062  0.46272593  1  0.00707  0  -0.088382  -0.174248  0  3.981004  0
C  C238  1  0.98252312  0.76605636  0.30345273  1  -0.06389  0  -0.08723  -0.173893  0  3.979271  0
C  C239  1  0.21679674  0.53738720  0.23380081  1  -0.021626  0  -0.087401  -0.173499  0  3.979543  0
C  C240  1  0.71679430  0.23379449  0.53738840  1  -0.020715  0  -0.087196  -0.173192  0  3.97947  0
C  C241  1  0.17922666  0.46271738  0.69651023  1  0.007744  0  -0.088479  -0.174363  0  3.981156  0
C  C242  1  0.48252720  0.30345123  0.76605548  1  -0.064414  0  -0.087204  -0.173886  0  3.979436  0
C  C243  1  0.32076948  0.30348074  0.53727688  1  0.007123  0  -0.088501  -0.174323  0  3.981159  0
C  C244  1  0.01747150  0.23394365  0.69654517  1  -0.064645  0  -0.087221  -0.173875  0  3.979377  0
C  C245  1  0.78320112  0.46261147  0.76620135  1  -0.020704  0  -0.087319  -0.173377  0  3.979371  0
N  N246  1  0.91501555  0.38336364  0.47674932  1  -0.690683  0  -0.271499  -0.156475  0  3.675806  0
N  N247  1  0.43835017  0.52332472  0.90666509  1  -0.708604  0  -0.271802  -0.157572  0  3.679272  0
N  N248  1  0.53159329  0.09340534  0.61657048  1  -0.714008  0  -0.272067  -0.157038  0  3.678803  0
N  N249  1  0.06165132  0.09333747  0.47667830  1  -0.708563  0  -0.271816  -0.157553  0  3.679284  0
N  N250  1  0.96840652  0.38342917  0.90659736  1  -0.714029  0  -0.272076  -0.157152  0  3.679223  0
N  N251  1  0.58498524  0.52325463  0.61663793  1  -0.690975  0  -0.271475  -0.156449  0  3.675798  0
N  N252  1  0.08497666  0.61662895  0.52324410  1  -0.691117  0  -0.271418  -0.156402  0  3.675688  0
N  N253  1  0.56164811  0.47668001  0.09333328  1  -0.70893  0  -0.271786  -0.157523  0  3.678966  0
N  N254  1  0.46840460  0.90659467  0.38343552  1  -0.713421  0  -0.272146  -0.157125  0  3.67889  0
N  N255  1  0.93835345  0.90666591  0.52331964  1  -0.708934  0  -0.271817  -0.15758  0  3.678968  0
N  N256  1  0.03159684  0.61656613  0.09340614  1  -0.713909  0  -0.272141  -0.157102  0  3.678913  0
N  N257  1  0.41502389  0.47675482  0.38336897  1  -0.690913  0  -0.271433  -0.156329  0  3.675725  0
N  N258  1  0.86117143  0.35180516  0.51315003  1  -0.713195  0  -0.233084  -0.279318  0  3.21532  0
N  N259  1  0.34803166  0.48689732  0.83870231  1  -0.684505  0  -0.233163  -0.279644  0  3.218186  0
N  N260  1  0.50922054  0.16132070  0.64805778  1  -0.694671  0  -0.232692  -0.279486  0  3.216139  0
N  N261  1  0.15196961  0.16129796  0.51310427  1  -0.684671  0  -0.233169  -0.279651  0  3.218089  0
N  N262  1  0.99078107  0.35194443  0.83868185  1  -0.694572  0  -0.232706  -0.279422  0  3.216341  0
N  N263  1  0.63882943  0.48685276  0.64819501  1  -0.713096  0  -0.23299  -0.279297  0  3.215332  0
N  N264  1  0.13882141  0.64818609  0.48684251  1  -0.712859  0  -0.233098  -0.279299  0  3.214987  0
N  N265  1  0.65196533  0.51310876  0.16129845  1  -0.68391  0  -0.233252  -0.279857  0  3.217912  0
N  N266  1  0.49078394  0.83868335  0.35195146  1  -0.694768  0  -0.232707  -0.279501  0  3.216149  0
N  N267  1  0.84803577  0.83870272  0.48689451  1  -0.684014  0  -0.233195  -0.279745  0  3.21784  0
N  N268  1  0.00921544  0.64805154  0.16131673  1  -0.694736  0  -0.232736  -0.279567  0  3.216209  0
N  N269  1  0.36117704  0.51315399  0.35181130  1  -0.713233  0  -0.233123  -0.27947  0  3.215215  0
N  N270  1  0.15147389  0.76790269  0.60271540  1  -1.191202  0  -0.340613  -0.410232  0  3.168991  0
N  N271  1  0.54871298  0.39717935  0.16504652  1  -1.192137  0  -0.341551  -0.41195  0  3.168461  0
N  N272  1  0.38395087  0.83491652  0.23215103  1  -1.160902  0  -0.341371  -0.412165  0  3.168515  0
N  N273  1  0.95128852  0.83495636  0.60282519  1  -1.192274  0  -0.341628  -0.41206  0  3.168526  0
N  N274  1  0.11605166  0.76784981  0.16508421  1  -1.161062  0  -0.341341  -0.412078  0  3.168625  0
N  N275  1  0.34852618  0.39728318  0.23209502  1  -1.191705  0  -0.340607  -0.410309  0  3.169006  0
N  N276  1  0.84852453  0.23209058  0.39728159  1  -1.191431  0  -0.340611  -0.410302  0  3.169259  0
N  N277  1  0.45128172  0.60282605  0.83495170  1  -1.191964  0  -0.341603  -0.412017  0  3.168499  0
N  N278  1  0.61604827  0.16508080  0.76785376  1  -1.161422  0  -0.341225  -0.411909  0  3.168765  0
N  N279  1  0.04871498  0.16504837  0.39717625  1  -1.192144  0  -0.341591  -0.412007  0  3.168532  0
N  N280  1  0.88395234  0.23214549  0.83491891  1  -1.161353  0  -0.341224  -0.411928  0  3.168777  0
N  N281  1  0.65147930  0.60272290  0.76791078  1  -1.191337  0  -0.340489  -0.410192  0  3.169079  0
N  N282  1  0.99078173  0.57829967  0.60659628  1  -1.18352  0  -0.325677  -0.180615  0  3.559077  0
N  N283  1  0.38398941  0.39327810  0.97158524  1  -1.182358  0  -0.325697  -0.180463  0  3.557263  0
N  N284  1  0.41249161  0.02829122  0.42165744  1  -1.137818  0  -0.32525  -0.180326  0  3.557054  0
N  N285  1  0.11601117  0.02841482  0.60671895  1  -1.182497  0  -0.325652  -0.180463  0  3.55728  0
N  N286  1  0.08750874  0.57834481  0.97171217  1  -1.137786  0  -0.325302  -0.180489  0  3.557  0
N  N287  1  0.50921883  0.39340201  0.42169866  1  -1.183412  0  -0.325719  -0.180695  0  3.558996  0
N  N288  1  0.00920946  0.42169091  0.39339668  1  -1.183047  0  -0.325715  -0.180669  0  3.559056  0
N  N289  1  0.61600816  0.60672393  0.02840806  1  -1.18237  0  -0.325685  -0.180479  0  3.557221  0
N  N290  1  0.58750991  0.97171216  0.57834631  1  -1.137684  0  -0.325307  -0.180477  0  3.556808  0
N  N291  1  0.88399299  0.97159126  0.39327870  1  -1.182473  0  -0.325684  -0.180471  0  3.557233  0
N  N292  1  0.91248972  0.42165115  0.02828805  1  -1.137767  0  -0.32532  -0.180508  0  3.556872  0
N  N293  1  0.49079122  0.60660407  0.57830724  1  -1.183202  0  -0.325715  -0.180692  0  3.559216  0
N  N294  1  0.61418691  0.08393916  0.50067634  1  -1.17254  0  -0.336582  -0.154086  0  3.609233  0
N  N295  1  0.11341959  0.49938573  0.58336732  1  -1.16072  0  -0.336555  -0.153014  0  3.609668  0
N  N296  1  0.52991658  0.41661374  0.91593438  1  -1.171445  0  -0.337104  -0.152819  0  3.608016  0
N  N297  1  0.38657749  0.41662659  0.50061032  1  -1.160849  0  -0.336501  -0.152987  0  3.609566  0
N  N298  1  0.97008505  0.08406632  0.58338630  1  -1.171465  0  -0.337146  -0.152845  0  3.608189  0
N  N299  1  0.88581117  0.49932240  0.91605880  1  -1.172419  0  -0.336652  -0.154193  0  3.609428  0
N  N300  1  0.38581028  0.91605816  0.49932459  1  -1.172329  0  -0.336775  -0.154493  0  3.609442  0
N  N301  1  0.88657160  0.50060485  0.41662397  1  -1.161624  0  -0.336388  -0.152832  0  3.609594  0
N  N302  1  0.47008559  0.58338964  0.08406899  1  -1.171155  0  -0.337107  -0.152958  0  3.608208  0
N  N303  1  0.61342992  0.58337814  0.49939383  1  -1.161533  0  -0.336386  -0.152795  0  3.609542  0
N  N304  1  0.02991313  0.91593302  0.41661007  1  -1.171237  0  -0.33713  -0.152971  0  3.608078  0
N  N305  1  0.11418662  0.50067222  0.08394131  1  -1.172575  0  -0.336725  -0.154362  0  3.609507  0
