# generated using pymatgen
data_CdH27C39(N3O4)2
_symmetry_space_group_name_H-M   'P 1'
_cell_length_a   9.44085599
_cell_length_b   16.94052336
_cell_length_c   23.62267964
_cell_angle_alpha   90.00056068
_cell_angle_beta   95.05951630
_cell_angle_gamma   90.00039014
_symmetry_Int_Tables_number   1
_chemical_formula_structural   CdH27C39(N3O4)2
_chemical_formula_sum   'Cd4 H108 C156 N24 O32'
_cell_volume   3763.32632284
_cell_formula_units_Z   4
loop_
 _symmetry_equiv_pos_site_id
 _symmetry_equiv_pos_as_xyz
  1  'x, y, z'
loop_
 _atom_site_type_symbol
 _atom_site_label
 _atom_site_symmetry_multiplicity
 _atom_site_fract_x
 _atom_site_fract_y
 _atom_site_fract_z
 _atom_site_occupancy
 _atom_site_pbe_bader_charge
 _atom_site_pbe_bader_spin_density
 _atom_site_pbe_cm5_charge
 _atom_site_pbe_ddec_charge
 _atom_site_pbe_ddec_spin_density
 _atom_site_pbe_ddec_sum_bond_order
 _atom_site_pbe_magmom
Cd  Cd0  1  0.63309640  0.66797197  0.75054006  1  1.263831  0  0.775003  0.848112  0  2.206882  0
Cd  Cd1  1  0.36691558  0.16797215  0.74945792  1  1.263778  0  0.775012  0.848196  0  2.206763  0
Cd  Cd2  1  0.36690081  0.33202574  0.24945554  1  1.263659  0  0.774957  0.848034  0  2.206917  0
Cd  Cd3  1  0.63309548  0.83203029  0.25054153  1  1.263622  0  0.775045  0.848251  0  2.206675  0
H  H4  1  0.62429128  0.44286112  0.17042541  1  0.653921  0  0.296562  0.358752  0  0.99219  0
H  H5  1  0.37569486  0.94286338  0.32957212  1  0.653933  0  0.296583  0.358744  0  0.992233  0
H  H6  1  0.37570385  0.55713895  0.82957478  1  0.653921  0  0.296525  0.358632  0  0.99234  0
H  H7  1  0.62430133  0.05714083  0.67042895  1  0.653848  0  0.296516  0.358678  0  0.992292  0
H  H8  1  0.26452655  0.61850555  0.25990200  1  0.061641  0  0.094642  0.094385  0  1.039633  0
H  H9  1  0.73546794  0.11848575  0.24010533  1  0.061342  0  0.094709  0.094426  0  1.039654  0
H  H10  1  0.73547071  0.38150633  0.74009911  1  0.061568  0  0.094694  0.094384  0  1.039776  0
H  H11  1  0.26453997  0.88151669  0.75989825  1  0.061168  0  0.094701  0.0944  0  1.039833  0
H  H12  1  0.04048036  0.69270776  0.27252915  1  0.070355  0  0.101808  0.106484  0  1.009054  0
H  H13  1  0.95950126  0.19268982  0.22746896  1  0.070399  0  0.101687  0.106396  0  1.009208  0
H  H14  1  0.95951051  0.30730117  0.72747047  1  0.070494  0  0.101683  0.106312  0  1.00915  0
H  H15  1  0.04050559  0.80730849  0.77253416  1  0.070408  0  0.101736  0.106422  0  1.009109  0
H  H16  1  0.33062710  0.58951301  0.16207106  1  0.079484  0  0.100958  0.101059  0  1.005191  0
H  H17  1  0.66938189  0.08951196  0.33793739  1  0.079671  0  0.10097  0.101083  0  1.005168  0
H  H18  1  0.66938932  0.41049002  0.83793196  1  0.079643  0  0.101013  0.101194  0  1.005052  0
H  H19  1  0.33061537  0.91049342  0.66206372  1  0.079509  0  0.100945  0.101047  0  1.005154  0
H  H20  1  0.17353576  0.63646289  0.07825326  1  0.085059  0  0.102916  0.118032  0  1.025168  0
H  H21  1  0.82648336  0.13647595  0.42174655  1  0.085147  0  0.102927  0.118095  0  1.025341  0
H  H22  1  0.82648061  0.36353365  0.92174552  1  0.085168  0  0.102913  0.118044  0  1.025296  0
H  H23  1  0.17351497  0.86352708  0.57825544  1  0.085194  0  0.102934  0.118095  0  1.025336  0
H  H24  1  0.81744931  0.60563429  0.13877895  1  0.112474  0  0.109843  0.127626  0  1.03971  0
H  H25  1  0.18255024  0.10563585  0.36121956  1  0.112436  0  0.109843  0.127644  0  1.039693  0
H  H26  1  0.18254793  0.39436815  0.86122004  1  0.112411  0  0.109879  0.127637  0  1.039763  0
H  H27  1  0.81745552  0.89436836  0.63878140  1  0.112355  0  0.109869  0.127622  0  1.03973  0
H  H28  1  0.45579824  0.58592678  0.01539415  1  0.105625  0  0.109224  0.130846  0  1.020945  0
H  H29  1  0.54419362  0.08592367  0.48460650  1  0.105679  0  0.109225  0.13087  0  1.020942  0
H  H30  1  0.54419581  0.41407211  0.98460515  1  0.105683  0  0.10923  0.130855  0  1.020983  0
H  H31  1  0.45580156  0.91407227  0.51539835  1  0.105678  0  0.109226  0.130854  0  1.020925  0
H  H32  1  0.78072413  0.75935297  0.99228382  1  0.085385  0  0.11585  0.14811  0  0.973111  0
H  H33  1  0.21927851  0.25935587  0.50771704  1  0.085678  0  0.115795  0.14802  0  0.973095  0
H  H34  1  0.21926885  0.24064474  0.00771417  1  0.085367  0  0.115821  0.148047  0  0.973112  0
H  H35  1  0.78072092  0.74063830  0.49228922  1  0.085463  0  0.115793  0.148041  0  0.973138  0
H  H36  1  0.34159509  0.71395515  0.02543963  1  0.079144  0  0.100965  0.110936  0  1.035428  0
H  H37  1  0.65838999  0.21394997  0.47455706  1  0.07896  0  0.100905  0.11085  0  1.035464  0
H  H38  1  0.65839893  0.28605260  0.97455671  1  0.078982  0  0.100882  0.110799  0  1.035569  0
H  H39  1  0.34159554  0.78604302  0.52544027  1  0.079075  0  0.100927  0.110831  0  1.035589  0
H  H40  1  0.08351765  0.72607527  0.99893524  1  0.09882  0  0.096845  0.095892  0  1.039339  0
H  H41  1  0.91646962  0.22607010  0.50106232  1  0.098454  0  0.096904  0.095969  0  1.039251  0
H  H42  1  0.91647106  0.27392953  0.00106092  1  0.098583  0  0.096903  0.095936  0  1.039298  0
H  H43  1  0.08352336  0.77392525  0.49893483  1  0.098466  0  0.096908  0.095966  0  1.039273  0
H  H44  1  0.98909313  0.72439631  0.89632515  1  0.040757  0  0.100263  0.103102  0  1.00499  0
H  H45  1  0.01091006  0.22439734  0.60367168  1  0.040745  0  0.100259  0.103095  0  1.004961  0
H  H46  1  0.01089663  0.27560258  0.10366893  1  0.040913  0  0.10026  0.103217  0  1.004948  0
H  H47  1  0.98909462  0.77560805  0.39632629  1  0.040823  0  0.100251  0.103101  0  1.004974  0
H  H48  1  0.15723163  0.70599162  0.82206496  1  0.082229  0  0.101557  0.099286  0  1.024927  0
H  H49  1  0.84277347  0.20599442  0.67793602  1  0.082321  0  0.101597  0.099298  0  1.024831  0
H  H50  1  0.84276667  0.29400432  0.17793321  1  0.082334  0  0.101519  0.099221  0  1.024956  0
H  H51  1  0.15723443  0.79401392  0.32206544  1  0.082151  0  0.101537  0.099284  0  1.024916  0
H  H52  1  0.74471634  0.50366049  0.96287152  1  0.133947  0  0.108134  0.125929  0  1.033257  0
H  H53  1  0.25527213  0.00366215  0.53712956  1  0.133925  0  0.10817  0.125974  0  1.033059  0
H  H54  1  0.25528088  0.49633782  0.03712535  1  0.133961  0  0.108146  0.12596  0  1.033038  0
H  H55  1  0.74470712  0.99634502  0.46287687  1  0.133842  0  0.108113  0.12591  0  1.033249  0
H  H56  1  0.18593363  0.54534630  0.93950127  1  0.090249  0  0.106727  0.114509  0  1.019864  0
H  H57  1  0.81406714  0.04535097  0.56050222  1  0.090157  0  0.10674  0.114524  0  1.019949  0
H  H58  1  0.81406887  0.45465024  0.06049196  1  0.089611  0  0.106739  0.114534  0  1.01994  0
H  H59  1  0.18592381  0.95465560  0.43950587  1  0.090402  0  0.106728  0.114523  0  1.020022  0
H  H60  1  0.71831273  0.60737226  0.89651004  1  0.171072  0  0.135412  0.11225  0  1.023886  0
H  H61  1  0.28168141  0.10737785  0.60348902  1  0.171034  0  0.135426  0.112292  0  1.02383  0
H  H62  1  0.28169087  0.39262605  0.10348705  1  0.170981  0  0.135412  0.11233  0  1.023893  0
H  H63  1  0.71830738  0.89261869  0.39651519  1  0.170894  0  0.135422  0.112293  0  1.023894  0
H  H64  1  0.10689687  0.51558671  0.84639541  1  0.137455  0  0.119873  0.124938  0  1.061204  0
H  H65  1  0.89310348  0.01558643  0.65360828  1  0.137528  0  0.119872  0.124974  0  1.06112  0
H  H66  1  0.89309072  0.48440333  0.15359479  1  0.137365  0  0.119847  0.124743  0  1.061438  0
H  H67  1  0.10688431  0.98441778  0.34640309  1  0.137392  0  0.119846  0.124839  0  1.061367  0
H  H68  1  0.95216941  0.58347757  0.75355612  1  0.123875  0  0.117947  0.115932  0  0.998693  0
H  H69  1  0.04784040  0.08348299  0.74644795  1  0.123808  0  0.117939  0.115898  0  0.998683  0
H  H70  1  0.04781077  0.41651306  0.24643679  1  0.124046  0  0.117974  0.115916  0  0.998582  0
H  H71  1  0.95216548  0.91652004  0.25356488  1  0.124043  0  0.118013  0.116015  0  0.998708  0
H  H72  1  0.45964971  0.47873551  0.75777896  1  0.14925  0  0.120268  0.120328  0  1.013837  0
H  H73  1  0.54034853  0.97873251  0.74222164  1  0.149231  0  0.120264  0.120278  0  1.013897  0
H  H74  1  0.54033796  0.52127224  0.24221885  1  0.149451  0  0.120254  0.120272  0  1.013874  0
H  H75  1  0.45966253  0.02126521  0.25777739  1  0.149672  0  0.120205  0.120163  0  1.013864  0
H  H76  1  0.44557556  0.37297428  0.66743777  1  0.200431  0  0.126365  0.147357  0  1.026163  0
H  H77  1  0.55442546  0.87297843  0.83256260  1  0.200468  0  0.126374  0.147346  0  1.026224  0
H  H78  1  0.55441744  0.62702639  0.33256277  1  0.200453  0  0.126375  0.147367  0  1.026177  0
H  H79  1  0.44557711  0.12701987  0.16743742  1  0.200548  0  0.126392  0.147334  0  1.026234  0
H  H80  1  0.72717946  0.56136194  0.63697387  1  0.181497  0  0.131458  0.108382  0  1.029479  0
H  H81  1  0.27282361  0.06136268  0.86302431  1  0.181571  0  0.131425  0.108373  0  1.029377  0
H  H82  1  0.27281350  0.43863755  0.36302159  1  0.183706  0  0.131416  0.108351  0  1.029308  0
H  H83  1  0.72718104  0.93863681  0.13697111  1  0.181398  0  0.131458  0.108378  0  1.029501  0
H  H84  1  0.37383202  0.40967363  0.56529402  1  0.122967  0  0.114508  0.121075  0  0.980923  0
H  H85  1  0.62617057  0.90967587  0.93470539  1  0.122929  0  0.11451  0.121079  0  0.980928  0
H  H86  1  0.62616736  0.59032468  0.43470589  1  0.1229  0  0.114533  0.121113  0  0.981096  0
H  H87  1  0.37383624  0.09032362  0.06529350  1  0.123005  0  0.114527  0.121101  0  0.980947  0
H  H88  1  0.38256372  0.36595887  0.46614528  1  0.105163  0  0.109469  0.113354  0  1.014896  0
H  H89  1  0.61744581  0.86595811  0.03385248  1  0.105119  0  0.109456  0.11334  0  1.014877  0
H  H90  1  0.61744735  0.63403826  0.53385459  1  0.105069  0  0.10945  0.113349  0  1.014922  0
H  H91  1  0.38256847  0.13404787  0.96614962  1  0.10528  0  0.109511  0.113406  0  1.014902  0
H  H92  1  0.83767749  0.39951488  0.48172603  1  0.080474  0  0.110612  0.115884  0  0.99584  0
H  H93  1  0.16232085  0.89952163  0.01827583  1  0.080367  0  0.110618  0.115798  0  0.995904  0
H  H94  1  0.16232722  0.60048107  0.51827617  1  0.080389  0  0.110635  0.115842  0  0.995868  0
H  H95  1  0.83767534  0.10048612  0.98172439  1  0.080856  0  0.110592  0.115829  0  0.995818  0
H  H96  1  0.82693458  0.44434412  0.58065628  1  0.065604  0  0.113068  0.120626  0  0.98001  0
H  H97  1  0.17306850  0.94434857  0.91934467  1  0.065625  0  0.113019  0.120599  0  0.979999  0
H  H98  1  0.17306482  0.55564651  0.41934574  1  0.06568  0  0.113029  0.120567  0  0.979998  0
H  H99  1  0.82693085  0.05565328  0.08065270  1  0.065724  0  0.113079  0.12062  0  0.980032  0
H  H100  1  0.40323160  0.30417519  0.39116471  1  0.187417  0  0.131024  0.100206  0  1.036751  0
H  H101  1  0.59676646  0.80417477  0.10883561  1  0.187462  0  0.13103  0.100177  0  1.036693  0
H  H102  1  0.59677412  0.69582252  0.60883245  1  0.187334  0  0.1311  0.10029  0  1.036706  0
H  H103  1  0.40323610  0.19582708  0.89116440  1  0.187382  0  0.131042  0.10024  0  1.036684  0
H  H104  1  0.74051308  0.32297090  0.28715430  1  0.099145  0  0.11881  0.115168  0  1.005171  0
H  H105  1  0.25947883  0.82297353  0.21284214  1  0.099103  0  0.11878  0.115124  0  1.005252  0
H  H106  1  0.25948734  0.67704570  0.71284352  1  0.099099  0  0.118788  0.115143  0  1.005321  0
H  H107  1  0.74052694  0.17703363  0.78715926  1  0.099095  0  0.118767  0.115152  0  1.005215  0
H  H108  1  0.83250862  0.38212874  0.39267802  1  0.122518  0  0.125195  0.127066  0  1.005976  0
H  H109  1  0.16748626  0.88213139  0.10732106  1  0.122446  0  0.125161  0.127033  0  1.005981  0
H  H110  1  0.16748759  0.61787901  0.60732390  1  0.122111  0  0.125251  0.127129  0  1.005978  0
H  H111  1  0.83251208  0.11787459  0.89268177  1  0.12227  0  0.12518  0.127043  0  1.006043  0
C  C112  1  0.19765834  0.63947088  0.22305745  1  -0.018001  0  -0.096658  -0.092681  0  4.018365  0
C  C113  1  0.80232789  0.13946717  0.27694467  1  -0.020916  0  -0.096756  -0.092808  0  4.01824  0
C  C114  1  0.80233040  0.36052978  0.77694210  1  -0.020875  0  -0.096699  -0.092693  0  4.018568  0
C  C115  1  0.19768107  0.86053467  0.72305683  1  -0.017693  0  -0.096709  -0.0927  0  4.018426  0
C  C116  1  0.85871205  0.75935904  0.19469925  1  1.595455  0  0.184266  0.571591  0  4.257201  0
C  C117  1  0.14129165  0.25935556  0.30528866  1  1.595852  0  0.184254  0.571993  0  4.256532  0
C  C118  1  0.14128192  0.24064104  0.80529158  1  1.595297  0  0.184544  0.572355  0  4.256452  0
C  C119  1  0.85872263  0.74064334  0.69471302  1  1.595766  0  0.184236  0.571974  0  4.256393  0
C  C120  1  0.98764772  0.71122669  0.18363429  1  0.019948  0  -0.023067  -0.124593  0  3.962127  0
C  C121  1  0.01235856  0.21122051  0.31635971  1  0.019946  0  -0.023267  -0.124983  0  3.962053  0
C  C122  1  0.01235053  0.28877457  0.81635966  1  0.019602  0  -0.023271  -0.1251  0  3.962438  0
C  C123  1  0.98764829  0.78877720  0.68364383  1  0.019772  0  -0.023252  -0.125114  0  3.962275  0
C  C124  1  0.07403844  0.68175983  0.23025754  1  -0.029975  0  -0.088327  -0.096235  0  3.995804  0
C  C125  1  0.92595045  0.18175472  0.26973904  1  -0.030128  0  -0.088016  -0.095844  0  3.995401  0
C  C126  1  0.92595137  0.31824202  0.76974204  1  -0.030097  0  -0.088109  -0.095846  0  3.995822  0
C  C127  1  0.07405852  0.81824536  0.73026373  1  -0.030045  0  -0.088024  -0.095833  0  3.995531  0
C  C128  1  0.59950997  0.43006135  0.57909749  1  0.394198  0  0.096765  0.164552  0  4.015425  0
C  C129  1  0.40049612  0.93006433  0.92090515  1  0.394053  0  0.0967  0.164549  0  4.015056  0
C  C130  1  0.40049261  0.56993636  0.42090380  1  0.393511  0  0.096728  0.164504  0  4.015172  0
C  C131  1  0.59950646  0.06993870  0.07909571  1  0.393485  0  0.096756  0.164552  0  4.015279  0
C  C132  1  0.23561790  0.62377155  0.16837032  1  -0.025507  0  -0.086395  -0.04441  0  3.991384  0
C  C133  1  0.76439363  0.12376547  0.33163254  1  -0.022095  0  -0.086393  -0.044306  0  3.991306  0
C  C134  1  0.76439850  0.37622912  0.83163101  1  -0.022673  0  -0.086419  -0.044498  0  3.991616  0
C  C135  1  0.23561106  0.87623520  0.66836797  1  -0.025552  0  -0.086354  -0.044298  0  3.991277  0
C  C136  1  0.96166617  0.52699005  0.94506109  1  0.249086  0  0.095414  0.165218  0  4.006529  0
C  C137  1  0.03833323  0.02699407  0.55493756  1  0.24891  0  0.095238  0.165096  0  4.006779  0
C  C138  1  0.03833529  0.47301062  0.05493423  1  0.249029  0  0.095336  0.164993  0  4.006852  0
C  C139  1  0.96165875  0.97301309  0.44506675  1  0.249656  0  0.095386  0.164977  0  4.006723  0
C  C140  1  0.14909238  0.65037769  0.12133290  1  -0.04757  0  -0.102426  -0.197623  0  3.990517  0
C  C141  1  0.85093013  0.15037788  0.37866756  1  -0.047808  0  -0.10252  -0.197959  0  3.990733  0
C  C142  1  0.85091761  0.34961944  0.87866567  1  -0.047567  0  -0.102542  -0.197837  0  3.990821  0
C  C143  1  0.14907563  0.84962161  0.62133299  1  -0.047549  0  -0.102584  -0.197921  0  3.990845  0
C  C144  1  0.02713714  0.69395822  0.12918684  1  0.362845  0  0.07983  0.220457  0  4.020646  0
C  C145  1  0.97287108  0.19396585  0.37081133  1  0.362626  0  0.079966  0.220756  0  4.02027  0
C  C146  1  0.97286646  0.30603832  0.87081025  1  0.362847  0  0.07999  0.22073  0  4.020312  0
C  C147  1  0.02713366  0.80603777  0.62919256  1  0.362894  0  0.079934  0.220693  0  4.020215  0
C  C148  1  0.81465035  0.68588753  0.06733428  1  0.440051  0  0.089006  0.291207  0  4.056022  0
C  C149  1  0.18534501  0.18589182  0.43266551  1  0.440122  0  0.089074  0.291291  0  4.056118  0
C  C150  1  0.18534690  0.31411137  0.93266513  1  0.439515  0  0.089113  0.291339  0  4.055858  0
C  C151  1  0.81465227  0.81410649  0.56733771  1  0.439331  0  0.089056  0.291506  0  4.055652  0
C  C152  1  0.75992011  0.62594675  0.09968171  1  -0.004292  0  -0.105998  -0.24664  0  3.965873  0
C  C153  1  0.24007865  0.12595436  0.40031649  1  -0.004478  0  -0.106114  -0.246818  0  3.965838  0
C  C154  1  0.24007604  0.37404683  0.90031470  1  -0.00428  0  -0.106117  -0.246703  0  3.965824  0
C  C155  1  0.75992074  0.87404513  0.59968511  1  -0.004281  0  -0.10612  -0.246797  0  3.965853  0
C  C156  1  0.63048410  0.59085242  0.08029455  1  -0.052666  0  -0.017816  0.001653  0  4.028662  0
C  C157  1  0.36950676  0.09084956  0.41970568  1  -0.05253  0  -0.017621  0.001914  0  4.028399  0
C  C158  1  0.36950677  0.40914942  0.91970507  1  -0.052428  0  -0.017668  0.001621  0  4.02843  0
C  C159  1  0.63049797  0.90914934  0.58029780  1  -0.052571  0  -0.017661  0.001677  0  4.028432  0
C  C160  1  0.57607889  0.52034702  0.10944790  1  1.527403  0  0.226714  0.569964  0  4.132687  0
C  C161  1  0.42393014  0.02034456  0.39055370  1  1.527654  0  0.226494  0.569519  0  4.132932  0
C  C162  1  0.42392904  0.47965601  0.89055653  1  1.52814  0  0.226587  0.569813  0  4.132845  0
C  C163  1  0.57607033  0.97965610  0.60944921  1  1.527799  0  0.226567  0.569934  0  4.132891  0
C  C164  1  0.55315055  0.61633581  0.03053086  1  0.113577  0  -0.10484  -0.243981  0  3.985855  0
C  C165  1  0.44683750  0.11633213  0.46947242  1  0.113426  0  -0.104849  -0.244007  0  3.985942  0
C  C166  1  0.44683929  0.38366191  0.96947211  1  0.113362  0  -0.104839  -0.243963  0  3.985769  0
C  C167  1  0.55315553  0.88366558  0.53053151  1  0.113444  0  -0.104836  -0.243858  0  3.985549  0
C  C168  1  0.60672878  0.67858644  0.00029341  1  0.35681  0  0.085077  0.276443  0  4.072503  0
C  C169  1  0.39326966  0.17858828  0.49970559  1  0.356772  0  0.085037  0.276378  0  4.072982  0
C  C170  1  0.39327059  0.32140714  0.99970607  1  0.356676  0  0.085011  0.276455  0  4.072775  0
C  C171  1  0.60673506  0.82141003  0.50029704  1  0.356746  0  0.084975  0.276189  0  4.072804  0
C  C172  1  0.73767557  0.71312175  0.01784347  1  0.013614  0  -0.108926  -0.313994  0  3.943182  0
C  C173  1  0.26232336  0.21311990  0.48215665  1  0.013066  0  -0.108914  -0.313931  0  3.943357  0
C  C174  1  0.26232379  0.28687714  0.98215432  1  0.013843  0  -0.108959  -0.314019  0  3.943256  0
C  C175  1  0.73768032  0.78687486  0.51784891  1  0.013673  0  -0.108969  -0.31405  0  3.943195  0
C  C176  1  0.39538729  0.70667287  0.93858292  1  0.385141  0  0.088476  0.238942  0  4.010325  0
C  C177  1  0.60461567  0.20666496  0.56141630  1  0.385269  0  0.088493  0.238953  0  4.010407  0
C  C178  1  0.60461207  0.29333488  0.06141487  1  0.385378  0  0.088538  0.239049  0  4.010461  0
C  C179  1  0.39539223  0.79333275  0.43858558  1  0.385437  0  0.088483  0.238915  0  4.010398  0
C  C180  1  0.30129761  0.71339473  0.98081316  1  0.013768  0  -0.111199  -0.217802  0  4.023023  0
C  C181  1  0.69869798  0.21339783  0.51918375  1  0.013771  0  -0.111249  -0.217865  0  4.023198  0
C  C182  1  0.69869641  0.28660594  0.01918191  1  0.013633  0  -0.111234  -0.217894  0  4.02315  0
C  C183  1  0.30130246  0.78659989  0.48081619  1  0.013701  0  -0.111215  -0.217806  0  4.023204  0
C  C184  1  0.15555817  0.72028198  0.96555817  1  -0.093004  0  -0.096953  -0.068027  0  4.036741  0
C  C185  1  0.84443438  0.22029055  0.53444419  1  -0.092652  0  -0.097013  -0.068067  0  4.036886  0
C  C186  1  0.84442950  0.27970688  0.03444049  1  -0.092678  0  -0.09702  -0.067961  0  4.036689  0
C  C187  1  0.15556396  0.77971188  0.46555780  1  -0.092642  0  -0.097012  -0.068026  0  4.036867  0
C  C188  1  0.10291395  0.71953654  0.90845513  1  0.003259  0  -0.105107  -0.11062  0  4.038088  0
C  C189  1  0.89708600  0.21953368  0.59154451  1  0.003295  0  -0.105103  -0.110602  0  4.038229  0
C  C190  1  0.89707690  0.28045881  0.09154195  1  0.002764  0  -0.105064  -0.110814  0  4.038174  0
C  C191  1  0.10291975  0.78046817  0.40845561  1  0.002668  0  -0.105066  -0.110658  0  4.03835  0
C  C192  1  0.19703451  0.70982482  0.86667042  1  -0.072906  0  -0.088768  -0.08993  0  4.004712  0
C  C193  1  0.80297061  0.20982097  0.63332721  1  -0.073164  0  -0.088858  -0.089962  0  4.004896  0
C  C194  1  0.80296590  0.29017526  0.13332614  1  -0.072672  0  -0.088814  -0.089898  0  4.004793  0
C  C195  1  0.19703833  0.79018206  0.36667175  1  -0.072233  0  -0.088826  -0.089991  0  4.004999  0
C  C196  1  0.34365054  0.70373683  0.88100840  1  0.038939  0  -0.025862  -0.136923  0  3.971637  0
C  C197  1  0.65635664  0.20373932  0.61899180  1  0.039112  0  -0.025776  -0.136829  0  3.971508  0
C  C198  1  0.65635411  0.29625971  0.11898703  1  0.038802  0  -0.025793  -0.136755  0  3.97154  0
C  C199  1  0.34364914  0.79626430  0.38101129  1  0.038769  0  -0.025743  -0.136699  0  3.971639  0
C  C200  1  0.44194076  0.69270104  0.83511869  1  1.559593  0  0.209273  0.593871  0  4.183303  0
C  C201  1  0.55806094  0.19270731  0.66488082  1  1.559835  0  0.2093  0.593808  0  4.183389  0
C  C202  1  0.55805433  0.30728841  0.16487768  1  1.560488  0  0.209314  0.593768  0  4.183016  0
C  C203  1  0.44194485  0.80729335  0.33512269  1  1.560075  0  0.209234  0.593865  0  4.183226  0
C  C204  1  0.85627329  0.50293474  0.97941145  1  0.018942  0  -0.089728  -0.158232  0  3.965631  0
C  C205  1  0.14371513  0.00294166  0.52058539  1  0.019013  0  -0.089752  -0.15824  0  3.965904  0
C  C206  1  0.14371328  0.49706593  0.02058337  1  0.019105  0  -0.089747  -0.158143  0  3.965906  0
C  C207  1  0.85627045  0.99706786  0.47941744  1  0.019058  0  -0.089692  -0.157954  0  3.96563  0
C  C208  1  0.10494260  0.52417755  0.96578812  1  -0.012253  0  -0.089176  -0.146518  0  3.991925  0
C  C209  1  0.89505254  0.02418041  0.53421418  1  -0.012308  0  -0.089209  -0.146678  0  3.992159  0
C  C210  1  0.89505037  0.47581957  0.03420903  1  -0.011549  0  -0.089209  -0.14644  0  3.99177  0
C  C211  1  0.10494156  0.97582557  0.46579020  1  -0.012253  0  -0.089227  -0.146447  0  3.992044  0
C  C212  1  0.80208855  0.59293880  0.86977973  1  0.974188  0  0.142946  0.101322  0  3.895892  0
C  C213  1  0.19790860  0.09294620  0.63022059  1  0.974497  0  0.142862  0.101296  0  3.896161  0
C  C214  1  0.19790761  0.40705714  0.13021668  1  0.974181  0  0.142822  0.101031  0  3.896303  0
C  C215  1  0.80208126  0.90705565  0.36978449  1  0.974222  0  0.142977  0.101243  0  3.89592  0
C  C216  1  0.00416795  0.54431170  0.84272251  1  0.344961  0  0.000493  -0.097895  0  3.917151  0
C  C217  1  0.99583600  0.04431598  0.65728108  1  0.345286  0  0.000475  -0.097928  0  3.917212  0
C  C218  1  0.99582074  0.45567894  0.15727153  1  0.344617  0  0.000541  -0.097558  0  3.917214  0
C  C219  1  0.00416029  0.95568409  0.34272888  1  0.345097  0  0.000446  -0.098044  0  3.91782  0
C  C220  1  0.92727704  0.57864797  0.79737492  1  0.337807  0  -0.004812  -0.031866  0  4.00354  0
C  C221  1  0.07273271  0.07865232  0.70263038  1  0.33781  0  -0.004751  -0.031676  0  4.00346  0
C  C222  1  0.07271166  0.42133971  0.20262039  1  0.338065  0  -0.004874  -0.031906  0  4.003437  0
C  C223  1  0.92726995  0.92134540  0.29737852  1  0.33801  0  -0.004877  -0.031935  0  4.003518  0
C  C224  1  0.51233106  0.48089880  0.71885703  1  0.347552  0  0.002286  -0.015711  0  3.979311  0
C  C225  1  0.48767039  0.98089848  0.78114201  1  0.347561  0  0.002361  -0.015592  0  3.979346  0
C  C226  1  0.48766084  0.51910541  0.28113924  1  0.347318  0  0.002315  -0.015623  0  3.979244  0
C  C227  1  0.51233960  0.01909865  0.21885571  1  0.34672  0  0.002444  -0.015436  0  3.979357  0
C  C228  1  0.50017546  0.42908249  0.67400221  1  0.271523  0  0.000331  -0.112434  0  3.889208  0
C  C229  1  0.49982737  0.92908399  0.82599523  1  0.271503  0  0.000314  -0.112419  0  3.889278  0
C  C230  1  0.49981645  0.57091759  0.32599533  1  0.271484  0  0.000292  -0.112538  0  3.889355  0
C  C231  1  0.50017516  0.07091077  0.17400097  1  0.272097  0  0.000211  -0.112554  0  3.88962  0
C  C232  1  0.65370838  0.52470310  0.65814594  1  0.920285  0  0.133335  0.075949  0  3.933954  0
C  C233  1  0.34629419  0.02470029  0.84185366  1  0.920344  0  0.133411  0.075999  0  3.933918  0
C  C234  1  0.34628884  0.47529875  0.34185093  1  0.918339  0  0.133409  0.076034  0  3.933786  0
C  C235  1  0.65371048  0.97529565  0.15814347  1  0.920438  0  0.133438  0.076014  0  3.933812  0
C  C236  1  0.47522959  0.40727884  0.54667555  1  -0.041038  0  -0.079575  -0.131634  0  3.973654  0
C  C237  1  0.52477298  0.90727682  0.95332596  1  -0.040808  0  -0.07948  -0.131569  0  3.973549  0
C  C238  1  0.52477615  0.59272359  0.45332330  1  -0.040854  0  -0.079563  -0.131654  0  3.973556  0
C  C239  1  0.47522852  0.09272208  0.04667402  1  -0.040989  0  -0.079585  -0.131613  0  3.973697  0
C  C240  1  0.48063047  0.38278928  0.49082661  1  -0.001216  0  -0.087526  -0.153894  0  3.991195  0
C  C241  1  0.51937402  0.88278900  0.00917491  1  -0.001067  0  -0.087575  -0.153976  0  3.991257  0
C  C242  1  0.51937851  0.61720844  0.50917658  1  -0.001173  0  -0.087485  -0.153918  0  3.990876  0
C  C243  1  0.48063599  0.11720812  0.99082535  1  -0.001303  0  -0.08762  -0.154082  0  3.991503  0
C  C244  1  0.61092543  0.37980303  0.46677895  1  0.335207  0  0.096536  0.161302  0  4.022173  0
C  C245  1  0.38907901  0.87980908  0.03322213  1  0.353106  0  0.096615  0.161452  0  4.022026  0
C  C246  1  0.38907292  0.62018524  0.53322431  1  0.33474  0  0.096656  0.161595  0  4.021926  0
C  C247  1  0.61092781  0.12019395  0.96677845  1  0.334847  0  0.096585  0.16146  0  4.022231  0
C  C248  1  0.73501187  0.40350228  0.49915159  1  -0.035691  0  -0.087828  -0.152478  0  4.004026  0
C  C249  1  0.26498761  0.90350683  0.00085161  1  -0.053261  0  -0.087854  -0.152339  0  4.003843  0
C  C250  1  0.26498859  0.59648953  0.50085004  1  -0.034549  0  -0.087913  -0.152449  0  4.004122  0
C  C251  1  0.73500755  0.09649561  0.99915112  1  -0.035741  0  -0.087783  -0.15235  0  4.003943  0
C  C252  1  0.72947764  0.42842808  0.55506081  1  -0.064589  0  -0.084279  -0.146129  0  3.988166  0
C  C253  1  0.27052099  0.92843619  0.94494157  1  -0.064588  0  -0.084225  -0.146188  0  3.987932  0
C  C254  1  0.27052817  0.57156727  0.44494482  1  -0.064228  0  -0.084241  -0.146145  0  3.988288  0
C  C255  1  0.72946882  0.07156978  0.05505802  1  -0.064174  0  -0.084297  -0.146211  0  3.988316  0
C  C256  1  0.50746824  0.31652321  0.37732819  1  0.920454  0  0.138441  0.094464  0  3.912652  0
C  C257  1  0.49252786  0.81652552  0.12267130  1  0.920474  0  0.138472  0.094583  0  3.912649  0
C  C258  1  0.49254069  0.68347687  0.62267034  1  0.920303  0  0.138401  0.094422  0  3.91264  0
C  C259  1  0.50747260  0.18347751  0.87733034  1  0.92051  0  0.138369  0.09444  0  3.912625  0
C  C260  1  0.68384869  0.32795377  0.32487438  1  0.426874  0  0.005249  -0.00217  0  4.006918  0
C  C261  1  0.31614543  0.82795611  0.17512386  1  0.42666  0  0.005285  -0.002007  0  4.006926  0
C  C262  1  0.31614962  0.67205752  0.67512549  1  0.426932  0  0.005314  -0.00209  0  4.007122  0
C  C263  1  0.68385929  0.17205164  0.82487877  1  0.426843  0  0.005329  -0.001995  0  4.006971  0
C  C264  1  0.73055760  0.35796922  0.37697654  1  0.291274  0  -0.00372  -0.113067  0  3.909174  0
C  C265  1  0.26944118  0.85797187  0.12302038  1  0.291685  0  -0.003617  -0.113057  0  3.909121  0
C  C266  1  0.26944176  0.64204326  0.62302125  1  0.291747  0  -0.003852  -0.113166  0  3.909175  0
C  C267  1  0.73056033  0.14203647  0.87698087  1  0.291557  0  -0.003674  -0.113049  0  3.909284  0
N  N268  1  0.92369897  0.55339079  0.88870474  1  -1.244856  0  -0.227164  0.001623  0  3.803073  0
N  N269  1  0.07630296  0.05339512  0.61129758  1  -1.245126  0  -0.227103  0.001484  0  3.803175  0
N  N270  1  0.07629293  0.44660397  0.11129153  1  -1.244794  0  -0.227062  0.001664  0  3.803345  0
N  N271  1  0.92369224  0.94660909  0.38870981  1  -1.245455  0  -0.227117  0.00173  0  3.803368  0
N  N272  1  0.80226568  0.60896274  0.81487752  1  -1.215485  0  -0.351843  -0.28696  0  3.519628  0
N  N273  1  0.19773593  0.10896968  0.68512265  1  -1.215688  0  -0.351715  -0.286905  0  3.519913  0
N  N274  1  0.19772407  0.39103026  0.18511656  1  -1.215258  0  -0.35177  -0.286836  0  3.519934  0
N  N275  1  0.80226458  0.89102862  0.31488534  1  -1.215457  0  -0.351812  -0.286756  0  3.519934  0
N  N276  1  0.60719157  0.54024713  0.70823518  1  -1.186206  0  -0.347172  -0.287925  0  3.502283  0
N  N277  1  0.39280908  0.04024443  0.79176361  1  -1.186298  0  -0.347243  -0.287998  0  3.502215  0
N  N278  1  0.39279395  0.45975884  0.29176087  1  -1.186434  0  -0.347171  -0.287906  0  3.502119  0
N  N279  1  0.60720304  0.95975624  0.20823503  1  -1.18646  0  -0.347336  -0.288111  0  3.502336  0
N  N280  1  0.61671322  0.35154144  0.41049304  1  -1.257549  0  -0.225735  0.005952  0  3.77755  0
N  N281  1  0.38328761  0.85154467  0.08950560  1  -1.258162  0  -0.225772  0.005864  0  3.777605  0
N  N282  1  0.38329571  0.64845509  0.58950549  1  -1.257935  0  -0.22573  0.005832  0  3.777438  0
N  N283  1  0.61671602  0.14845836  0.91049488  1  -1.2577  0  -0.225742  0.005879  0  3.777577  0
N  N284  1  0.54478167  0.30249621  0.32550510  1  -1.172996  0  -0.350196  -0.295213  0  3.452923  0
N  N285  1  0.45520678  0.80249671  0.17449234  1  -1.173026  0  -0.350333  -0.295463  0  3.453282  0
N  N286  1  0.45521555  0.69750977  0.67449220  1  -1.172999  0  -0.350302  -0.295308  0  3.453237  0
N  N287  1  0.54479792  0.19750750  0.82550816  1  -1.172878  0  -0.350253  -0.295407  0  3.453313  0
N  N288  1  0.59080548  0.45756381  0.63540530  1  -1.267541  0  -0.229952  -0.000439  0  3.805458  0
N  N289  1  0.40920099  0.95756430  0.86459628  1  -1.267504  0  -0.229987  -0.000525  0  3.805312  0
N  N290  1  0.40919923  0.54243449  0.36459648  1  -1.267511  0  -0.229989  -0.000461  0  3.805374  0
N  N291  1  0.59079732  0.04243223  0.13540275  1  -1.267588  0  -0.229921  -0.000356  0  3.805426  0
O  O292  1  0.78989185  0.73458958  0.23558956  1  -1.151834  0  -0.342907  -0.543584  0  2.185165  0
O  O293  1  0.21008589  0.23458818  0.26438756  1  -1.151873  0  -0.342723  -0.543482  0  2.18506  0
O  O294  1  0.21009144  0.26541345  0.76439668  1  -1.151825  0  -0.34295  -0.543719  0  2.184858  0
O  O295  1  0.78992948  0.76540836  0.73561755  1  -1.152044  0  -0.342712  -0.543405  0  2.184738  0
O  O296  1  0.82890618  0.82090647  0.16574733  1  -1.194728  0  -0.352392  -0.595327  0  2.118184  0
O  O297  1  0.17111647  0.32089877  0.33424251  1  -1.195094  0  -0.35249  -0.595702  0  2.117987  0
O  O298  1  0.17110907  0.17909892  0.83424465  1  -1.19457  0  -0.352578  -0.595785  0  2.118047  0
O  O299  1  0.82887971  0.67910190  0.66575686  1  -1.194888  0  -0.35251  -0.595717  0  2.117922  0
O  O300  1  0.94603273  0.71963298  0.08015185  1  -1.099164  0  -0.156989  -0.224375  0  2.578373  0
O  O301  1  0.05397264  0.21965431  0.41984472  1  -1.098638  0  -0.157071  -0.224466  0  2.578088  0
O  O302  1  0.05396978  0.28035233  0.91984181  1  -1.098643  0  -0.157031  -0.224395  0  2.578006  0
O  O303  1  0.94602996  0.78034518  0.58015868  1  -1.098473  0  -0.157035  -0.224505  0  2.577929  0
O  O304  1  0.65998514  0.49673427  0.15462162  1  -1.183237  0  -0.329139  -0.49053  0  2.331203  0
O  O305  1  0.34001452  0.99673543  0.34537718  1  -1.183325  0  -0.329142  -0.49038  0  2.331097  0
O  O306  1  0.34002273  0.50326521  0.84537772  1  -1.183507  0  -0.329083  -0.490403  0  2.331121  0
O  O307  1  0.65998913  0.00326760  0.65462499  1  -1.183322  0  -0.329091  -0.490486  0  2.331097  0
O  O308  1  0.46547919  0.48611752  0.09167395  1  -1.16073  0  -0.294961  -0.51076  0  2.174404  0
O  O309  1  0.53452241  0.98611494  0.40832103  1  -1.160902  0  -0.294826  -0.510516  0  2.174537  0
O  O310  1  0.53452550  0.51388137  0.90832571  1  -1.161239  0  -0.29493  -0.510662  0  2.174641  0
O  O311  1  0.46548657  0.01387511  0.59168216  1  -1.161093  0  -0.294809  -0.510639  0  2.174813  0
O  O312  1  0.54166888  0.70587514  0.94945616  1  -1.094511  0  -0.146905  -0.210019  0  2.61901  0
O  O313  1  0.45833512  0.20587007  0.55054182  1  -1.09445  0  -0.146786  -0.209959  0  2.619287  0
O  O314  1  0.45833259  0.29412376  0.05054001  1  -1.094478  0  -0.146811  -0.210019  0  2.619267  0
O  O315  1  0.54167069  0.79412234  0.44946380  1  -1.094358  0  -0.146823  -0.209951  0  2.619421  0
O  O316  1  0.53630654  0.74299596  0.82730583  1  -1.145151  0  -0.306868  -0.51465  0  2.166266  0
O  O317  1  0.46369375  0.24299725  0.67269568  1  -1.145205  0  -0.306873  -0.514679  0  2.166457  0
O  O318  1  0.46368963  0.25699645  0.17269312  1  -1.145367  0  -0.306845  -0.514627  0  2.166331  0
O  O319  1  0.53630994  0.75700224  0.32731072  1  -1.145608  0  -0.306739  -0.51464  0  2.166423  0
O  O320  1  0.42331279  0.63047663  0.80376946  1  -1.179844  0  -0.318498  -0.554828  0  2.255463  0
O  O321  1  0.57669230  0.13048516  0.69622929  1  -1.179896  0  -0.318538  -0.554781  0  2.255532  0
O  O322  1  0.57669075  0.36951577  0.19622128  1  -1.180394  0  -0.318574  -0.554817  0  2.255295  0
O  O323  1  0.42331456  0.86951846  0.30377552  1  -1.179821  0  -0.31862  -0.554928  0  2.255201  0
