# generated using pymatgen
data_CuH22C12O5
_symmetry_space_group_name_H-M   'P 1'
_cell_length_a   8.90847224
_cell_length_b   9.41627076
_cell_length_c   10.47892129
_cell_angle_alpha   84.16431135
_cell_angle_beta   67.65423614
_cell_angle_gamma   70.88439156
_symmetry_Int_Tables_number   1
_chemical_formula_structural   CuH22C12O5
_chemical_formula_sum   'Cu2 H44 C24 O10'
_cell_volume   767.91936460
_cell_formula_units_Z   2
loop_
 _symmetry_equiv_pos_site_id
 _symmetry_equiv_pos_as_xyz
  1  'x, y, z'
loop_
 _atom_site_type_symbol
 _atom_site_label
 _atom_site_symmetry_multiplicity
 _atom_site_fract_x
 _atom_site_fract_y
 _atom_site_fract_z
 _atom_site_occupancy
 _atom_site_hle17_ddec_charge
 _atom_site_hle17_ddec_spin_density
 _atom_site_hle17_ddec_sum_bond_order
 _atom_site_hle17_magmom
 _atom_site_hse06_10hf_ddec_charge
 _atom_site_hse06_10hf_ddec_spin_density
 _atom_site_hse06_10hf_ddec_sum_bond_order
 _atom_site_hse06_10hf_magmom
 _atom_site_hse06_ddec_charge
 _atom_site_hse06_ddec_spin_density
 _atom_site_hse06_ddec_sum_bond_order
 _atom_site_hse06_magmom
 _atom_site_pbe_cm5_charge
 _atom_site_pbe_ddec_charge
 _atom_site_pbe_ddec_spin_density
 _atom_site_pbe_ddec_sum_bond_order
 _atom_site_pbe_magmom
Cu  Cu0  1  0.12296987  0.03201450  0.50742978  1  0.853877  0.650119  1.887587  0.466  0.843779  0.783914  2.293481  0.616  0.957803  0.876119  2.182819  0.715  0.674898  0.777564  0.676689  2.353829  0.522
Cu  Cu1  1  0.87701911  0.96798232  0.49257189  1  0.853932  -0.650123  1.887353  -0.466  0.843927  -0.783928  2.293136  -0.616  0.966183  -0.876133  2.170166  -0.715  0.674877  0.77776  -0.676692  2.353332  -0.522
H  H2  1  0.26945211  0.67794853  0.79352599  1  0.09786  0.000138  0.966514  0.0  0.117626  0.000117  1.030708  0.0  0.118698  7.3e-05  1.031166  0.0  0.085009  0.116784  0.000112  1.030434  0.0
H  H3  1  0.73056186  0.32204965  0.20646750  1  0.097889  -0.000142  0.966463  0.0  0.117639  -0.000117  1.030677  0.0  0.118717  -7.3e-05  1.031109  0.0  0.08501  0.116807  -0.000112  1.030396  0.0
H  H4  1  0.30427785  0.48089223  0.79252155  1  0.092185  -0.000711  0.971487  -0.001  0.114022  -0.000497  1.033442  -0.001  0.114606  -0.000322  1.034477  0.0  0.084205  0.113483  -0.000584  1.032699  -0.001
H  H5  1  0.69574086  0.51911616  0.20747136  1  0.092118  0.000708  0.971561  0.001  0.114032  0.000497  1.033435  0.001  0.114615  0.000323  1.034465  0.0  0.084173  0.113494  0.000584  1.032697  0.001
H  H6  1  0.39582076  0.56989876  0.63761296  1  0.098761  7.4e-05  0.95345  0.0  0.117001  4.3e-05  1.018223  0.0  0.118192  3.1e-05  1.018058  0.0  0.085154  0.116107  5.7e-05  1.018541  0.0
H  H7  1  0.60419553  0.43010627  0.36238868  1  0.098755  -7.6e-05  0.953353  0.0  0.117013  -4.4e-05  1.018122  0.0  0.118196  -3e-05  1.017951  0.0  0.085171  0.116117  -5.7e-05  1.018444  0.0
H  H8  1  0.17423488  0.36877481  0.66836832  1  0.109809  0.000556  0.946383  0.001  0.129763  0.0004  1.007559  0.0  0.130577  0.000261  1.008135  0.0  0.090036  0.12952  0.000447  1.006674  0.001
H  H9  1  0.82579126  0.63121669  0.33161712  1  0.109857  -0.000546  0.946462  -0.001  0.129832  -0.0004  1.007615  0.0  0.130656  -0.000261  1.008158  0.0  0.090121  0.129591  -0.000447  1.006732  -0.001
H  H10  1  0.03025803  0.48719830  0.59366637  1  0.114972  -0.000163  0.954752  0.0  0.134295  -0.000143  1.016409  0.0  0.136068  -9.7e-05  1.01604  0.0  0.092206  0.133161  -0.000162  1.016598  0.0
H  H11  1  0.96976032  0.51280779  0.40632210  1  0.114927  0.000167  0.954793  0.0  0.134304  0.000142  1.016408  0.0  0.136074  9.7e-05  1.016049  0.0  0.092164  0.133173  0.000162  1.016597  0.0
H  H12  1  0.25257184  0.46394430  0.51454781  1  0.098535  -4.2e-05  0.94013  0.0  0.120056  -1e-05  0.999787  0.0  0.120749  -7e-06  1.000295  0.0  0.086292  0.119581  2.1e-05  0.999483  0.0
H  H13  1  0.74745336  0.53606298  0.48543547  1  0.098461  4.6e-05  0.940383  0.0  0.120038  9e-06  0.99998  0.0  0.120732  7e-06  1.000481  0.0  0.086339  0.119568  -2.1e-05  0.999676  0.0
H  H14  1  0.94654271  0.71673249  0.90232058  1  0.098325  -1.4e-05  0.945044  0.0  0.119973  1e-05  1.003802  0.0  0.120817  3e-06  1.004459  0.0  0.086497  0.119239  0.0  1.00357  0.0
H  H15  1  0.05348010  0.28327138  0.09766475  1  0.098305  1.8e-05  0.944984  0.0  0.119932  -1.1e-05  1.003774  0.0  0.120778  -3e-06  1.004431  0.0  0.086497  0.119195  -0.0  1.003543  0.0
H  H16  1  0.85015651  0.64172588  0.81577261  1  0.106191  -0.000133  0.957627  0.0  0.12539  -0.000142  1.020075  0.0  0.127089  -8.4e-05  1.019678  0.0  0.089342  0.124291  -0.000187  1.020297  0.0
H  H17  1  0.14986382  0.35828475  0.18421479  1  0.106192  0.00014  0.957477  0.0  0.125383  0.000142  1.019927  0.0  0.127071  8.4e-05  1.019561  0.0  0.089354  0.124282  0.000187  1.020144  0.0
H  H18  1  0.98707890  0.51897293  0.89543350  1  0.097505  0.000459  0.962101  0.001  0.119776  0.00032  1.022765  0.0  0.120401  0.000212  1.024018  0.0  0.088182  0.119243  0.000364  1.022111  0.0
H  H19  1  0.01292856  0.48103308  0.10456040  1  0.097443  -0.000452  0.962125  -0.001  0.119727  -0.000321  1.022771  0.0  0.120353  -0.000212  1.024027  0.0  0.088166  0.119189  -0.000365  1.022121  0.0
H  H20  1  0.69132561  0.15030388  0.08771978  1  0.097865  -0.000386  0.961923  0.0  0.120209  -0.000295  1.022831  0.0  0.120414  -0.000199  1.02439  0.0  0.088744  0.120228  -0.00031  1.021467  0.0
H  H21  1  0.30866620  0.84969185  0.91228204  1  0.097791  0.000377  0.96196  0.0  0.120144  0.000295  1.022849  0.0  0.120348  0.000199  1.02441  0.0  0.088704  0.120158  0.000311  1.021488  0.0
H  H22  1  0.75968662  0.98740114  0.98225913  1  0.099309  2.1e-05  0.954058  0.0  0.120061  0.0  1.015912  0.0  0.120885  4e-06  1.016658  0.0  0.087574  0.119354  -1.9e-05  1.015654  0.0
H  H23  1  0.24029312  0.01259110  0.01774786  1  0.099213  -2.6e-05  0.954175  0.0  0.119915  -1e-06  1.016092  0.0  0.120734  -5e-06  1.01685  0.0  0.087463  0.119205  1.9e-05  1.015832  0.0
H  H24  1  0.90036615  0.09445230  0.95723658  1  0.108769  0.000103  0.952216  0.0  0.128151  9.6e-05  1.014231  0.0  0.129859  5.8e-05  1.01382  0.0  0.089895  0.126986  0.000127  1.014575  0.0
H  H25  1  0.09962091  0.90553657  0.04276074  1  0.108698  -0.000107  0.95218  0.0  0.12811  -9.6e-05  1.014137  0.0  0.129831  -5.8e-05  1.013694  0.0  0.089904  0.126926  -0.000127  1.014501  0.0
H  H26  1  0.43123322  0.26418257  0.02251295  1  0.096817  0.000707  0.956843  0.001  0.118716  0.000516  1.018032  0.001  0.119286  0.000336  1.019094  0.0  0.086176  0.118198  0.000589  1.017295  0.001
H  H27  1  0.56874713  0.73582777  0.97750167  1  0.096598  -0.000705  0.956988  -0.001  0.118628  -0.000516  1.018061  -0.001  0.1192  -0.000336  1.01912  0.0  0.086054  0.118107  -0.000589  1.017331  -0.001
H  H28  1  0.45400708  0.27939869  0.84596547  1  0.096977  -0.000103  0.970426  0.0  0.116948  -8.5e-05  1.034335  0.0  0.118197  -5.3e-05  1.034095  0.0  0.085454  0.116055  -8.9e-05  1.03454  0.0
H  H29  1  0.54597171  0.72060933  0.15404033  1  0.097069  0.000102  0.970395  0.0  0.117004  8.4e-05  1.034357  0.0  0.118243  5.3e-05  1.034144  0.0  0.085479  0.116112  8.9e-05  1.03456  0.0
H  H30  1  0.49343726  0.09984221  0.92015134  1  0.10156  -0.000133  0.962605  0.0  0.121501  -0.000103  1.025886  0.0  0.122501  -6.6e-05  1.026375  0.0  0.087403  0.12086  -0.00012  1.025373  0.0
H  H31  1  0.50653394  0.90015673  0.07986063  1  0.101652  0.000131  0.962615  0.0  0.121653  0.000103  1.025796  0.0  0.122645  6.6e-05  1.026314  0.0  0.087498  0.121005  0.00012  1.025289  0.0
H  H32  1  0.84589159  0.35114272  0.84992424  1  0.111934  0.000205  0.958715  0.0  0.130936  0.00019  1.021014  0.0  0.132536  0.00012  1.021014  0.0  0.090981  0.129765  0.000214  1.02112  0.0
H  H33  1  0.15409300  0.64884621  0.15008628  1  0.111975  -0.000205  0.958651  0.0  0.130954  -0.00019  1.020986  0.0  0.132566  -0.00012  1.020954  0.0  0.090979  0.129779  -0.000214  1.021094  0.0
H  H34  1  0.66099091  0.43158387  0.80744629  1  0.100792  2.7e-05  0.938292  0.0  0.123115  -1.6e-05  0.995209  0.0  0.123927  -1e-05  0.995801  0.0  0.088072  0.122324  -1.4e-05  0.995176  0.0
H  H35  1  0.33900043  0.56841307  0.19257084  1  0.100883  -3.2e-05  0.93822  0.0  0.123163  1.6e-05  0.995175  0.0  0.123975  1.1e-05  0.995765  0.0  0.088101  0.122373  1.4e-05  0.995138  0.0
H  H36  1  0.63960879  0.41099117  0.98373345  1  0.097764  -0.000533  0.962225  -0.001  0.119259  -0.00038  1.025451  0.0  0.119581  -0.000249  1.02731  0.0  0.087478  0.118988  -0.00044  1.02425  -0.001
H  H37  1  0.36038592  0.58899332  0.01627327  1  0.097844  0.000531  0.962188  0.001  0.119324  0.00038  1.02539  0.0  0.119648  0.000249  1.027247  0.0  0.0875  0.119051  0.000439  1.024188  0.001
H  H38  1  0.44450263  0.12132189  0.66332306  1  0.065471  1e-06  0.935519  0.0  0.079702  -1.3e-05  1.001787  0.0  0.081729  5e-06  0.999728  0.0  0.102509  0.077809  -3.8e-05  1.003747  0.0
H  H39  1  0.55550281  0.87868298  0.33667350  1  0.065441  1.3e-05  0.935493  0.0  0.07961  1.3e-05  1.001837  0.0  0.08166  -6e-06  0.999732  0.0  0.102472  0.077718  3.8e-05  1.003794  0.0
H  H40  1  0.27850381  0.03375637  0.72619001  1  0.076779  -1.5e-05  0.919722  0.0  0.094228  -7e-06  0.978856  0.0  0.095401  -2.1e-05  0.977824  0.0  0.111029  0.092966  -9e-06  0.980218  0.0
H  H41  1  0.72150039  0.96624854  0.27381458  1  0.076814  1.8e-05  0.919732  0.0  0.09427  7e-06  0.978836  0.0  0.095418  2.2e-05  0.977869  0.0  0.111036  0.09301  9e-06  0.980198  0.0
H  H42  1  0.52825567  0.19229772  0.42064163  1  0.066396  -2.6e-05  0.94296  0.0  0.079479  -4.1e-05  1.011403  0.0  0.081507  -1.2e-05  1.009411  0.0  0.10247  0.07759  -5.8e-05  1.013368  0.0
H  H43  1  0.47174656  0.80769931  0.57937102  1  0.06643  1.7e-05  0.942954  0.0  0.079557  4.1e-05  1.011364  0.0  0.081607  1.1e-05  1.009329  0.0  0.102501  0.077672  5.8e-05  1.013326  0.0
H  H44  1  0.41786291  0.15117188  0.32324482  1  0.078297  -4.3e-05  0.910812  0.0  0.095984  -4.2e-05  0.968031  0.0  0.097327  -4.4e-05  0.966648  0.0  0.111875  0.094591  -2.9e-05  0.969701  0.0
H  H45  1  0.58214364  0.84883982  0.67675932  1  0.078279  3.9e-05  0.910829  0.0  0.095908  4.1e-05  0.968151  0.0  0.097224  4.4e-05  0.966834  0.0  0.11186  0.094527  2.9e-05  0.969818  0.0
C  C46  1  0.08083906  0.75317664  0.62271199  1  0.626343  -0.000104  3.76492  0.0  0.594476  -0.000163  4.055355  0.0  0.633443  -0.000159  4.054164  0.0  0.219758  0.567791  -0.000176  4.057676  0.0
C  C47  1  0.91917497  0.24681477  0.37728213  1  0.625703  9.8e-05  3.765906  0.0  0.594004  0.000161  4.056105  0.0  0.632969  0.000156  4.054924  0.0  0.219439  0.567319  0.000178  4.058418  0.0
C  C48  1  0.12171106  0.60723430  0.70164289  1  0.123157  0.000369  3.608369  0.001  0.158666  0.000318  3.833032  0.001  0.152036  0.000187  3.852614  0.0  -0.014017  0.164351  0.000384  3.818502  0.001
C  C49  1  0.87830124  0.39276840  0.29835357  1  0.12325  -0.000349  3.608513  -0.001  0.15861  -0.000317  3.833361  -0.001  0.151979  -0.000181  3.852949  0.0  -0.014041  0.1643  -0.000389  3.818827  -0.001
C  C50  1  0.28252773  0.58333826  0.73282934  1  -0.327827  -0.001055  3.70237  -0.001  -0.408944  -0.000553  3.942668  -0.001  -0.410319  -0.000397  3.953738  -0.001  -0.246481  -0.407588  -0.000788  3.934725  -0.001
C  C51  1  0.71748335  0.41666779  0.26716530  1  -0.327776  0.001065  3.702348  0.001  -0.408957  0.000554  3.942702  0.001  -0.410292  0.000395  3.953716  0.001  -0.246444  -0.407602  0.000789  3.934739  0.001
C  C52  1  0.14570226  0.47439092  0.61417422  1  -0.322674  0.000677  3.647878  0.001  -0.40269  0.000376  3.88754  0.0  -0.404142  0.000238  3.898073  0.0  -0.240426  -0.401476  0.000525  3.87941  0.001
C  C53  1  0.85432056  0.52560959  0.38581620  1  -0.322555  -0.000708  3.648154  -0.001  -0.402656  -0.000374  3.887815  0.0  -0.404105  -0.000237  3.898353  0.0  -0.240482  -0.401454  -0.000524  3.879688  -0.001
C  C54  1  0.96642210  0.62267527  0.83718402  1  -0.326388  0.000552  3.66613  0.001  -0.405119  0.000296  3.901072  0.0  -0.407247  0.000206  3.912372  0.0  -0.240612  -0.403346  0.000455  3.892758  0.001
C  C55  1  0.03358980  0.37732853  0.16281056  1  -0.32634  -0.000592  3.665887  -0.001  -0.405025  -0.000293  3.900892  0.0  -0.407168  -0.000208  3.912239  0.0  -0.240643  -0.40325  -0.000455  3.892573  -0.001
C  C56  1  0.80548192  0.12776679  0.73596641  1  0.627068  0.000375  3.771279  0.0  0.595851  0.000344  4.058478  0.0  0.634801  0.000309  4.057183  0.0  0.220585  0.569201  0.000266  4.0609  0.0
C  C57  1  0.19449381  0.87222650  0.26403510  1  0.627456  -0.00035  3.770722  0.0  0.596141  -0.000338  4.058068  0.0  0.635097  -0.000315  4.056735  0.0  0.220705  0.569491  -0.000262  4.060485  0.0
C  C58  1  0.69436148  0.20129461  0.88032188  1  0.12535  -0.000256  3.606086  -0.001  0.162458  -0.000204  3.827987  0.0  0.15607  -0.000105  3.847089  0.0  -0.013888  0.167973  -0.000326  3.813687  -0.001
C  C59  1  0.30562547  0.79870444  0.11967833  1  0.125203  0.000229  3.606213  0.0  0.162299  0.000201  3.828206  0.0  0.155912  0.00011  3.847309  0.0  -0.013901  0.167822  0.000323  3.813893  0.001
C  C60  1  0.76657818  0.10181524  0.98281972  1  -0.328748  -0.000524  3.663815  -0.001  -0.408588  -0.000308  3.898648  0.0  -0.410472  -0.000212  3.909836  0.0  -0.239442  -0.406967  -0.00042  3.890404  0.0
C  C61  1  0.23340681  0.89817926  0.01717964  1  -0.328438  0.000563  3.663886  0.001  -0.408229  0.000309  3.898687  0.0  -0.410107  0.000216  3.909857  0.0  -0.239272  -0.406586  0.00042  3.890453  0.0
C  C62  1  0.50732472  0.21146553  0.91928402  1  -0.328881  0.000994  3.692671  0.001  -0.411641  0.000538  3.932513  0.001  -0.412953  0.000391  3.943471  0.001  -0.247157  -0.410275  0.000716  3.924419  0.001
C  C63  1  0.49265167  0.78853910  0.08072574  1  -0.328891  -0.000992  3.69284  -0.001  -0.411765  -0.000538  3.932679  -0.001  -0.413099  -0.000392  3.9437  -0.001  -0.247214  -0.410398  -0.000715  3.924597  -0.001
C  C64  1  0.71152380  0.35839082  0.88020176  1  -0.330028  -0.000678  3.668689  -0.001  -0.410127  -0.000361  3.904324  0.0  -0.412107  -0.000246  3.915787  0.0  -0.242533  -0.408673  -0.000454  3.896268  -0.001
C  C65  1  0.28846684  0.64159816  0.11980680  1  -0.330177  0.000692  3.66851  0.001  -0.410205  0.000362  3.904194  0.0  -0.412167  0.000245  3.915596  0.0  -0.242547  -0.408749  0.000454  3.896135  0.001
C  C66  1  0.39168854  0.04195736  0.63803781  1  0.0468  -0.000192  3.624487  0.0  -0.017056  -0.000138  3.898278  0.0  -0.01054  -0.000111  3.903042  0.0  -0.076758  -0.021245  -0.000125  3.895234  0.0
C  C67  1  0.60831002  0.95804972  0.36196267  1  0.04675  0.000146  3.624711  0.0  -0.017105  0.000138  3.898483  0.0  -0.010637  0.000113  3.903689  0.0  -0.076756  -0.021291  0.000125  3.895437  0.0
C  C68  1  0.47300834  0.11072216  0.40279288  1  0.044823  -0.000186  3.623654  0.0  -0.018557  -0.000168  3.897338  0.0  -0.012056  -0.000134  3.90208  0.0  -0.076665  -0.022876  -0.00017  3.894555  0.0
C  C69  1  0.52699628  0.88928161  0.59720977  1  0.044803  0.000223  3.623604  0.0  -0.018659  0.000171  3.897437  0.0  -0.012205  0.000134  3.902623  0.0  -0.076693  -0.022987  0.00017  3.894674  0.0
O  O70  1  0.17589164  0.83602036  0.59991742  1  -0.574156  0.073382  2.103011  0.097  -0.546882  0.052567  2.37699  0.076  -0.59311  0.042824  2.370918  0.066  -0.310718  -0.518214  0.05379  2.3819  0.075
O  O71  1  0.82409505  0.16399911  0.40010193  1  -0.573993  -0.073379  2.103425  -0.097  -0.546763  -0.052557  2.3773  -0.076  -0.594461  -0.042821  2.370415  -0.066  -0.310631  -0.518115  -0.053784  2.382199  -0.075
O  O72  1  0.04811857  0.21960555  0.41191672  1  -0.565102  0.075175  2.084689  0.099  -0.541569  0.05289  2.354519  0.076  -0.587502  0.043164  2.347915  0.066  -0.313448  -0.513683  0.053627  2.359975  0.074
O  O73  1  0.95191785  0.78036794  0.58805853  1  -0.565513  -0.075159  2.084377  -0.099  -0.541922  -0.052882  2.354294  -0.076  -0.589328  -0.043156  2.346816  -0.066  -0.313719  -0.514053  -0.053621  2.359744  -0.074
O  O74  1  0.96023236  0.12708363  0.68917402  1  -0.56811  0.072486  2.092408  0.095  -0.543921  0.05182  2.363093  0.075  -0.589378  0.042515  2.356158  0.065  -0.314129  -0.516106  0.052673  2.368769  0.073
O  O75  1  0.03973796  0.87293434  0.31081257  1  -0.568285  -0.072503  2.092561  -0.095  -0.544007  -0.051824  2.363271  -0.075  -0.590942  -0.042521  2.355455  -0.065  -0.314008  -0.5162  -0.052683  2.368917  -0.073
O  O76  1  0.26348710  0.92794091  0.32406544  1  -0.572976  0.072611  2.106516  0.096  -0.54535  0.05261  2.37875  0.076  -0.59128  0.042892  2.372358  0.066  -0.310801  -0.51733  0.053278  2.383993  0.074
O  O77  1  0.73649647  0.07202435  0.67595434  1  -0.572856  -0.072615  2.106973  -0.096  -0.545186  -0.052611  2.379094  -0.076  -0.592598  -0.04289  2.371918  -0.066  -0.310584  -0.517178  -0.053275  2.384326  -0.074
O  O78  1  0.33281619  0.10047246  0.52690780  1  -0.315138  -0.00112  2.30378  0.0  -0.24083  -0.000854  2.566273  0.0  -0.263723  -0.000905  2.565141  0.0  -0.234684  -0.226071  -0.000718  2.566385  0.0
O  O79  1  0.66718164  0.89952670  0.47309175  1  -0.315167  0.001126  2.30399  0.0  -0.240791  0.000851  2.566487  0.0  -0.264995  0.000909  2.565516  0.0  -0.234694  -0.226043  0.000719  2.566598  0.0
