# generated using pymatgen
data_LaP2H8(CO2)4
_symmetry_space_group_name_H-M   'P 1'
_cell_length_a   5.99777185
_cell_length_b   10.09112871
_cell_length_c   9.22946195
_cell_angle_alpha   92.51013484
_cell_angle_beta   106.73795035
_cell_angle_gamma   107.96317038
_symmetry_Int_Tables_number   1
_chemical_formula_structural   LaP2H8(CO2)4
_chemical_formula_sum   'La2 P4 H16 C8 O16'
_cell_volume   503.44278387
_cell_formula_units_Z   2
loop_
 _symmetry_equiv_pos_site_id
 _symmetry_equiv_pos_as_xyz
  1  'x, y, z'
loop_
 _atom_site_type_symbol
 _atom_site_label
 _atom_site_symmetry_multiplicity
 _atom_site_fract_x
 _atom_site_fract_y
 _atom_site_fract_z
 _atom_site_occupancy
 _atom_site_hle17_bader_spin_density
 _atom_site_hle17_ddec_charge
 _atom_site_hle17_ddec_spin_density
 _atom_site_hle17_ddec_sum_bond_order
 _atom_site_hle17_magmom
 _atom_site_hse06_10hf_bader_spin_density
 _atom_site_hse06_10hf_ddec_charge
 _atom_site_hse06_10hf_ddec_spin_density
 _atom_site_hse06_10hf_ddec_sum_bond_order
 _atom_site_hse06_10hf_magmom
 _atom_site_hse06_bader_spin_density
 _atom_site_hse06_ddec_charge
 _atom_site_hse06_ddec_spin_density
 _atom_site_hse06_ddec_sum_bond_order
 _atom_site_hse06_magmom
 _atom_site_pbe_bader_spin_density
 _atom_site_pbe_cm5_charge
 _atom_site_pbe_ddec_charge
 _atom_site_pbe_ddec_spin_density
 _atom_site_pbe_ddec_sum_bond_order
 _atom_site_pbe_magmom
La  La0  1  0.78457183  0.48038378  0.18025212  1  0  2.172516  0  1.748539  0  0  2.060614  0  2.239012  0  0  2.150919  0  2.150601  0  0  1.465515  1.992664  0  2.300842  0
La  La1  1  0.21542111  0.51961702  0.81974471  1  0  2.172543  0  1.748583  0  0  2.060641  0  2.239041  0  0  2.150946  0  2.150624  0  0  1.46554  1.992703  0  2.300858  0
P  P2  1  0.44369796  0.63536764  0.26356292  1  0  1.518428  0  4.881692  0  0  1.364016  0  5.385811  0  0  1.414938  0  5.353249  0  0  0.320613  1.328251  0  5.407119  0
P  P3  1  0.55630778  0.36463101  0.73643795  1  0  1.518346  0  4.881674  0  0  1.363955  0  5.385804  0  0  1.414847  0  5.353248  0  0  0.320607  1.328187  0  5.407117  0
P  P4  1  0.19733185  0.80544602  0.06520983  1  0  1.516334  0  4.777854  0  0  1.361669  0  5.284825  0  0  1.412124  0  5.247991  0  0  0.371297  1.326163  0  5.309875  0
P  P5  1  0.80265825  0.19454601  0.93479429  1  0  1.516099  0  4.778087  0  0  1.361439  0  5.285114  0  0  1.411887  0  5.248263  0  0  0.371238  1.325934  0  5.310164  0
H  H6  1  0.62522734  0.86071424  0.19620006  1  0  0.172708  0  0.912657  0  0  0.181516  0  0.963191  0  0  0.18554  0  0.961284  0  0  0.129611  0.178552  0  0.964982  0
H  H7  1  0.37476738  0.13928652  0.80379814  1  0  0.172702  0  0.912626  0  0  0.181543  0  0.963133  0  0  0.185567  0  0.961208  0  0  0.129617  0.178582  0  0.964925  0
H  H8  1  0.09791775  0.81484062  0.36544752  1  0  0.095513  0  0.993199  0  0  0.101069  0  1.064593  0  0  0.104134  0  1.063227  0  0  0.10513  0.098772  0  1.06586  0
H  H9  1  0.90207517  0.18515693  0.63455113  1  0  0.095502  0  0.993238  0  0  0.10105  0  1.064647  0  0  0.104113  0  1.063283  0  0  0.105125  0.098755  0  1.065919  0
H  H10  1  0.85920297  0.03386489  0.40664228  1  0  0.096008  0  0.946838  0  0  0.109094  0  1.003919  0  0  0.11185  0  1.002798  0  0  0.103639  0.106959  0  1.005088  0
H  H11  1  0.14079240  0.96613687  0.59335722  1  0  0.095994  0  0.946837  0  0  0.109061  0  1.003943  0  0  0.111832  0  1.002806  0  0  0.103616  0.106925  0  1.005113  0
H  H12  1  0.12903233  0.99985218  0.11992904  1  0  0.431425  0  0.80044  0  0  0.410347  0  0.860574  0  0  0.419295  0  0.850336  0  0  0.344316  0.403933  0  0.868042  0
H  H13  1  0.87097984  0.00015188  0.88007019  1  0  0.431411  0  0.800443  0  0  0.410335  0  0.860576  0  0  0.419284  0  0.850337  0  0  0.344277  0.40392  0  0.868046  0
H  H14  1  0.26465055  0.27759655  0.08064964  1  0  0.421069  0  0.886774  0  0  0.390529  0  0.951847  0  0  0.401136  0  0.936353  0  0  0.301698  0.382974  0  0.962845  0
H  H15  1  0.73534936  0.72240427  0.91934833  1  0  0.421093  0  0.886741  0  0  0.390541  0  0.951835  0  0  0.401148  0  0.93634  0  0  0.301702  0.382982  0  0.962838  0
H  H16  1  0.45589197  0.20246767  0.15413976  1  0  0.431759  0  0.840135  0  0  0.406693  0  0.908065  0  0  0.415845  0  0.89475  0  0  0.311682  0.400055  0  0.916854  0
H  H17  1  0.54411949  0.79753871  0.84585417  1  0  0.431735  0  0.840138  0  0  0.406666  0  0.908093  0  0  0.415815  0  0.894782  0  0  0.311694  0.400029  0  0.916858  0
H  H18  1  0.79549279  0.36921065  0.49148754  1  0  0.43886  0  0.854997  0  0  0.41073  0  0.914059  0  0  0.420706  0  0.89982  0  0  0.311526  0.403354  0  0.924585  0
H  H19  1  0.20450263  0.63079107  0.50851305  1  0  0.438833  0  0.855029  0  0  0.410701  0  0.914087  0  0  0.420678  0  0.899847  0  0  0.311516  0.403325  0  0.924612  0
H  H20  1  0.03374546  0.35616838  0.46251451  1  0  0.453003  0  0.826069  0  0  0.427065  0  0.881668  0  0  0.437002  0  0.867272  0  0  0.319458  0.420038  0  0.891782  0
H  H21  1  0.96625101  0.64383238  0.53748397  1  0  0.453029  0  0.826018  0  0  0.427075  0  0.881659  0  0  0.437016  0  0.867257  0  0  0.319434  0.420043  0  0.89178  0
C  C22  1  0.46005799  0.81652412  0.23167804  1  0  -0.634396  0  3.686529  0  0  -0.602492  0  3.919854  0  0  -0.618219  0  3.925632  0  0  -0.088189  -0.591989  0  3.916211  0
C  C23  1  0.53994434  0.18347443  0.76832443  1  0  -0.634322  0  3.686282  0  0  -0.602476  0  3.919673  0  0  -0.618136  0  3.925359  0  0  -0.088196  -0.591972  0  3.916033  0
C  C24  1  0.47739041  0.91046839  0.36989955  1  0  0.137602  0  3.777008  0  0  0.14988  0  4.0127  0  0  0.151559  0  4.03798  0  0  -0.010177  0.148967  0  3.995473  0
C  C25  1  0.52261057  0.08953471  0.63009449  1  0  0.13758  0  3.776681  0  0  0.14986  0  4.012411  0  0  0.151496  0  4.037726  0  0  -0.010221  0.148946  0  3.995193  0
C  C26  1  0.27553606  0.89578577  0.42330624  1  0  -0.133257  0  3.750244  0  0  -0.153191  0  4.00296  0  0  -0.15533  0  4.022836  0  0  -0.095428  -0.151886  0  3.989706  0
C  C27  1  0.72447074  0.10421516  0.57669070  1  0  -0.133224  0  3.750297  0  0  -0.153151  0  4.003014  0  0  -0.155282  0  4.022897  0  0  -0.095375  -0.15185  0  3.989769  0
C  C28  1  0.70105055  0.01693840  0.44801481  1  0  -0.09557  0  3.7164  0  0  -0.116529  0  3.967129  0  0  -0.11835  0  3.986906  0  0  -0.09042  -0.11527  0  3.953836  0
C  C29  1  0.29895254  0.98306754  0.55198749  1  0  -0.095517  0  3.716221  0  0  -0.116464  0  3.966956  0  0  -0.118292  0  3.986747  0  0  -0.090366  -0.115205  0  3.953662  0
O  O30  1  0.22690997  0.57632766  0.32519615  1  0  -0.902849  0  1.973392  0  0  -0.823308  0  2.230018  0  0  -0.855559  0  2.212316  0  0  -0.430806  -0.79969  0  2.241518  0
O  O31  1  0.77310163  0.42367529  0.67480396  1  0  -0.902873  0  1.973461  0  0  -0.823308  0  2.230049  0  0  -0.85556  0  2.212354  0  0  -0.43083  -0.799689  0  2.241549  0
O  O32  1  0.95624922  0.72128041  0.09203320  1  0  -0.924295  0  1.977228  0  0  -0.851659  0  2.24227  0  0  -0.882928  0  2.225071  0  0  -0.402059  -0.828833  0  2.253408  0
O  O33  1  0.04375188  0.27872407  0.90797838  1  0  -0.924234  0  1.977129  0  0  -0.851619  0  2.242188  0  0  -0.882892  0  2.224995  0  0  -0.402088  -0.828795  0  2.253325  0
O  O34  1  0.69388521  0.63118386  0.36364200  1  0  -0.876949  0  1.868299  0  0  -0.805369  0  2.119184  0  0  -0.835806  0  2.10031  0  0  -0.425184  -0.783354  0  2.131344  0
O  O35  1  0.30611823  0.36881693  0.63635763  1  0  -0.876908  0  1.868242  0  0  -0.805347  0  2.119136  0  0  -0.835762  0  2.100256  0  0  -0.425171  -0.78333  0  2.131298  0
O  O36  1  0.39177087  0.55464871  0.10242078  1  0  -1.005353  0  2.024171  0  0  -0.932821  0  2.3102  0  0  -0.97296  0  2.298627  0  0  -0.484015  -0.903144  0  2.316875  0
O  O37  1  0.60823946  0.44535219  0.89757781  1  0  -1.005333  0  2.024237  0  0  -0.932814  0  2.31028  0  0  -0.972956  0  2.298719  0  0  -0.484011  -0.903138  0  2.316958  0
O  O38  1  0.20926646  0.96671324  0.05454473  1  0  -0.718165  0  1.993944  0  0  -0.652084  0  2.217999  0  0  -0.670604  0  2.195373  0  0  -0.380326  -0.639246  0  2.234222  0
O  O39  1  0.79072731  0.03328035  0.94544821  1  0  -0.718053  0  1.994091  0  0  -0.651934  0  2.218103  0  0  -0.670461  0  2.195486  0  0  -0.380172  -0.639094  0  2.23431  0
O  O40  1  0.23029358  0.75488537  0.91886007  1  0  -0.883981  0  1.948034  0  0  -0.814988  0  2.211063  0  0  -0.846326  0  2.192808  0  0  -0.431147  -0.792148  0  2.223217  0
O  O41  1  0.76968775  0.24510343  0.08114336  1  0  -0.883926  0  1.948041  0  0  -0.814971  0  2.2111  0  0  -0.846315  0  2.192854  0  0  -0.431129  -0.792118  0  2.223238  0
O  O42  1  0.39383182  0.27751666  0.17674875  1  0  -0.837521  0  1.800607  0  0  -0.79338  0  1.977174  0  0  -0.815884  0  1.946959  0  0  -0.618023  -0.777118  0  1.997617  0
O  O43  1  0.60616455  0.72248095  0.82324938  1  0  -0.837514  0  1.800599  0  0  -0.793368  0  1.9772  0  0  -0.815874  0  1.94699  0  0  -0.618022  -0.777105  0  1.997622  0
O  O44  1  0.86554400  0.35587420  0.40913872  1  0  -0.87293  0  1.850976  0  0  -0.827402  0  2.038699  0  0  -0.853087  0  2.009793  0  0  -0.628756  -0.808016  0  2.058709  0
O  O45  1  0.13445081  0.64412646  0.59086165  1  0  -0.872922  0  1.850962  0  0  -0.827413  0  2.038777  0  0  -0.853091  0  2.009848  0  0  -0.62874  -0.808024  0  2.05879  0
