# generated using pymatgen
data_CsH8C14NO4
_symmetry_space_group_name_H-M   'P 1'
_cell_length_a   5.04156733
_cell_length_b   15.63009114
_cell_length_c   16.53278279
_cell_angle_alpha   101.48912820
_cell_angle_beta   89.97031123
_cell_angle_gamma   99.31118007
_symmetry_Int_Tables_number   1
_chemical_formula_structural   CsH8C14NO4
_chemical_formula_sum   'Cs4 H32 C56 N4 O16'
_cell_volume   1259.18254689
_cell_formula_units_Z   4
loop_
 _symmetry_equiv_pos_site_id
 _symmetry_equiv_pos_as_xyz
  1  'x, y, z'
loop_
 _atom_site_type_symbol
 _atom_site_label
 _atom_site_symmetry_multiplicity
 _atom_site_fract_x
 _atom_site_fract_y
 _atom_site_fract_z
 _atom_site_occupancy
 _atom_site_hle17_bader_spin_density
 _atom_site_hle17_ddec_charge
 _atom_site_hle17_ddec_spin_density
 _atom_site_hle17_ddec_sum_bond_order
 _atom_site_hle17_magmom
 _atom_site_hse06_10hf_bader_spin_density
 _atom_site_hse06_10hf_ddec_charge
 _atom_site_hse06_10hf_ddec_spin_density
 _atom_site_hse06_10hf_ddec_sum_bond_order
 _atom_site_hse06_10hf_magmom
 _atom_site_hse06_bader_spin_density
 _atom_site_hse06_ddec_charge
 _atom_site_hse06_ddec_spin_density
 _atom_site_hse06_ddec_sum_bond_order
 _atom_site_hse06_magmom
 _atom_site_pbe_bader_spin_density
 _atom_site_pbe_cm5_charge
 _atom_site_pbe_ddec_charge
 _atom_site_pbe_ddec_spin_density
 _atom_site_pbe_ddec_sum_bond_order
 _atom_site_pbe_magmom
Cs  Cs0  1  0.99999022  0.00000257  0.49999644  1  0  0.962571  0  0.58402  0  0  0.916811  0  0.817282  0  0  0.930701  0  0.795605  0  0  0.898266  0.906451  0  0.832705  0
Cs  Cs1  1  0.99999973  0.00000226  0.00000037  1  0  0.962788  0  0.586407  0  0  0.916432  0  0.820591  0  0  0.930586  0  0.798647  0  0  0.900758  0.905963  0  0.836251  0
Cs  Cs2  1  0.19499123  0.99992137  0.74999751  1  0  0.951903  0  0.572876  0  0  0.898078  0  0.811165  0  0  0.915758  0  0.786066  0  0  0.855087  0.885126  0  0.828882  0
Cs  Cs3  1  0.80500988  0.00008144  0.24999593  1  0  0.951884  0  0.572858  0  0  0.898046  0  0.811123  0  0  0.915734  0  0.786037  0  0  0.855012  0.885121  0  0.828837  0
H  H4  1  0.80912943  0.52871349  0.48375542  1  0  0.10343  0  0.960027  0  0  0.109721  0  1.028448  0  0  0.113269  0  1.025136  0  0  0.10907  0.107108  0  1.030853  0
H  H5  1  0.28228714  0.47095519  0.01576093  1  0  0.102177  0  0.962132  0  0  0.109225  0  1.030035  0  0  0.112752  0  1.026775  0  0  0.109048  0.106611  0  1.032393  0
H  H6  1  0.19086936  0.47129659  0.51624726  1  0  0.103435  0  0.960051  0  0  0.109745  0  1.028439  0  0  0.113298  0  1.025133  0  0  0.109099  0.107125  0  1.030859  0
H  H7  1  0.71764616  0.52903503  0.98423920  1  0  0.102273  0  0.96192  0  0  0.109208  0  1.029958  0  0  0.112729  0  1.026725  0  0  0.109001  0.106575  0  1.032345  0
H  H8  1  0.42717335  0.46882561  0.38223600  1  0  0.102356  0  0.938715  0  0  0.11389  0  0.995563  0  0  0.116733  0  0.995333  0  0  0.106812  0.111848  0  0.995886  0
H  H9  1  0.96074964  0.53111921  0.11732761  1  0  0.103167  0  0.938028  0  0  0.114684  0  0.994811  0  0  0.117537  0  0.994553  0  0  0.107272  0.112641  0  0.995149  0
H  H10  1  0.57282643  0.53118250  0.61776389  1  0  0.102239  0  0.938722  0  0  0.113814  0  0.995559  0  0  0.116658  0  0.995327  0  0  0.106791  0.111774  0  0.995884  0
H  H11  1  0.03918035  0.46886439  0.88267550  1  0  0.103247  0  0.937983  0  0  0.114742  0  0.994807  0  0  0.117586  0  0.994544  0  0  0.107354  0.112698  0  0.995138  0
H  H12  1  0.36955510  0.54209833  0.26429273  1  0  0.090414  0  0.978425  0  0  0.10133  0  1.041978  0  0  0.103268  0  1.042452  0  0  0.099427  0.099925  0  1.041653  0
H  H13  1  0.82880767  0.45795330  0.23532889  1  0  0.090235  0  0.976394  0  0  0.100648  0  1.040695  0  0  0.102556  0  1.041275  0  0  0.09912  0.099268  0  1.040299  0
H  H14  1  0.63045196  0.45791242  0.73570766  1  0  0.09043  0  0.978482  0  0  0.101418  0  1.04194  0  0  0.103312  0  1.042466  0  0  0.099448  0.100015  0  1.041617  0
H  H15  1  0.17117686  0.54203625  0.76468200  1  0  0.090239  0  0.976399  0  0  0.100678  0  1.040672  0  0  0.102588  0  1.041252  0  0  0.099148  0.099296  0  1.040277  0
H  H16  1  0.53085939  0.65965548  0.18519830  1  0  0.113557  0  0.953568  0  0  0.123293  0  1.014339  0  0  0.12682  0  1.011899  0  0  0.107635  0.120702  0  1.0162  0
H  H17  1  0.87230225  0.34068067  0.31467893  1  0  0.113337  0  0.953243  0  0  0.123206  0  1.014002  0  0  0.126672  0  1.011599  0  0  0.1074  0.12064  0  1.015833  0
H  H18  1  0.46915460  0.34034535  0.81479718  1  0  0.113532  0  0.953584  0  0  0.123233  0  1.014406  0  0  0.126759  0  1.01197  0  0  0.107599  0.120647  0  1.016258  0
H  H19  1  0.12770014  0.65931286  0.68532909  1  0  0.113362  0  0.953333  0  0  0.123282  0  1.014021  0  0  0.126783  0  1.011571  0  0  0.107413  0.120665  0  1.015918  0
H  H20  1  0.85716981  0.79214513  0.17130263  1  0  0.110073  0  0.962792  0  0  0.117384  0  1.026075  0  0  0.120893  0  1.025261  0  0  0.109973  0.114787  0  1.026841  0
H  H21  1  0.06599467  0.20834290  0.32888579  1  0  0.110727  0  0.963637  0  0  0.118046  0  1.026667  0  0  0.121571  0  1.025876  0  0  0.109979  0.115457  0  1.027424  0
H  H22  1  0.14284419  0.20785571  0.82869043  1  0  0.110097  0  0.962911  0  0  0.117476  0  1.026112  0  0  0.120992  0  1.025296  0  0  0.110006  0.114883  0  1.026873  0
H  H23  1  0.93401169  0.79164667  0.67111844  1  0  0.110784  0  0.963783  0  0  0.118092  0  1.026775  0  0  0.121618  0  1.025981  0  0  0.109996  0.115481  0  1.027559  0
H  H24  1  0.24087677  0.84910916  0.27225946  1  0  0.099584  0  0.961552  0  0  0.106071  0  1.029672  0  0  0.11033  0  1.025822  0  0  0.117482  0.102904  0  1.032518  0
H  H25  1  0.39294929  0.15122888  0.22801268  1  0  0.098447  0  0.961815  0  0  0.105361  0  1.029649  0  0  0.10978  0  1.025631  0  0  0.117221  0.102081  0  1.032622  0
H  H26  1  0.75913194  0.15089696  0.72773460  1  0  0.099471  0  0.961543  0  0  0.105971  0  1.029657  0  0  0.110232  0  1.025805  0  0  0.117451  0.102811  0  1.032511  0
H  H27  1  0.60703725  0.84876069  0.77198369  1  0  0.098533  0  0.961785  0  0  0.10539  0  1.029661  0  0  0.109843  0  1.025604  0  0  0.117293  0.102109  0  1.032629  0
H  H28  1  0.76887582  0.80347878  0.51153359  1  0  0.100315  0  0.949352  0  0  0.107405  0  1.025256  0  0  0.11014  0  1.022259  0  0  0.110625  0.105403  0  1.027502  0
H  H29  1  0.96725474  0.19645467  0.98848384  1  0  0.100008  0  0.949154  0  0  0.106666  0  1.025415  0  0  0.109417  0  1.022383  0  0  0.110456  0.104679  0  1.027685  0
H  H30  1  0.23112762  0.19653662  0.48846343  1  0  0.100309  0  0.949083  0  0  0.107372  0  1.024965  0  0  0.110103  0  1.021966  0  0  0.11061  0.105378  0  1.027211  0
H  H31  1  0.03272584  0.80354283  0.01152191  1  0  0.09997  0  0.949103  0  0  0.106612  0  1.025367  0  0  0.109362  0  1.022334  0  0  0.110459  0.104648  0  1.027637  0
H  H32  1  0.58976348  0.73721405  0.57581654  1  0  0.110192  0  0.945613  0  0  0.124315  0  1.006671  0  0  0.126637  0  1.004975  0  0  0.11799  0.122645  0  1.007972  0
H  H33  1  0.85443472  0.26255820  0.92410244  1  0  0.109993  0  0.94518  0  0  0.12372  0  1.006552  0  0  0.126027  0  1.004843  0  0  0.118137  0.122087  0  1.007832  0
H  H34  1  0.41027103  0.26279605  0.42417948  1  0  0.110127  0  0.945848  0  0  0.124288  0  1.006812  0  0  0.126605  0  1.005117  0  0  0.117975  0.12262  0  1.008116  0
H  H35  1  0.14556240  0.73743666  0.07589917  1  0  0.109898  0  0.945276  0  0  0.123595  0  1.006666  0  0  0.125901  0  1.004957  0  0  0.11809  0.121977  0  1.007955  0
C  C36  1  0.19175194  0.66942498  0.48477299  1  0  0.510526  0  3.790764  0  0  0.463838  0  4.076379  0  0  0.494251  0  4.076292  0  0  0.246193  0.443382  0  4.075886  0
C  C37  1  0.52402695  0.33030649  0.01499446  1  0  0.510954  0  3.791167  0  0  0.463829  0  4.077169  0  0  0.494245  0  4.077071  0  0  0.246241  0.443409  0  4.076652  0
C  C38  1  0.80826999  0.33058379  0.51522883  1  0  0.510522  0  3.790756  0  0  0.463833  0  4.076328  0  0  0.494247  0  4.076251  0  0  0.246196  0.443375  0  4.07584  0
C  C39  1  0.47594174  0.66968705  0.98500448  1  0  0.511275  0  3.79094  0  0  0.464078  0  4.07703  0  0  0.494491  0  4.076944  0  0  0.246242  0.443655  0  4.076515  0
C  C40  1  0.96978209  0.63398260  0.42307939  1  0  -0.112318  0  3.790608  0  0  -0.097622  0  4.033674  0  0  -0.108815  0  4.058267  0  0  -0.016759  -0.090588  0  4.01718  0
C  C41  1  0.33712440  0.36578016  0.07659157  1  0  -0.111704  0  3.792319  0  0  -0.096784  0  4.035494  0  0  -0.107955  0  4.060128  0  0  -0.01604  -0.089801  0  4.018999  0
C  C42  1  0.03023720  0.36602485  0.57691976  1  0  -0.112472  0  3.791049  0  0  -0.09766  0  4.033946  0  0  -0.108856  0  4.058542  0  0  -0.016634  -0.090621  0  4.017452  0
C  C43  1  0.66286247  0.63421404  0.92341233  1  0  -0.111892  0  3.792443  0  0  -0.096948  0  4.035664  0  0  -0.108119  0  4.060309  0  0  -0.016103  -0.089933  0  4.019144  0
C  C44  1  0.94324064  0.67566696  0.35552142  1  0  0.036514  0  3.769548  0  0  0.037025  0  3.995269  0  0  0.040573  0  4.019978  0  0  0.002186  0.034931  0  3.978669  0
C  C45  1  0.26861699  0.32421269  0.14422627  1  0  0.035393  0  3.771163  0  0  0.035173  0  3.996965  0  0  0.038687  0  4.02167  0  0  0.001581  0.033115  0  3.980363  0
C  C46  1  0.05678030  0.32433586  0.64447323  1  0  0.036417  0  3.769989  0  0  0.03692  0  3.995708  0  0  0.040472  0  4.020417  0  0  0.002122  0.034819  0  3.979115  0
C  C47  1  0.73139070  0.67578349  0.85578043  1  0  0.035258  0  3.771337  0  0  0.035042  0  3.997203  0  0  0.03856  0  4.021911  0  0  0.001591  0.032974  0  3.980609  0
C  C48  1  0.13018422  0.75076016  0.34560251  1  0  -0.113134  0  3.788654  0  0  -0.098985  0  4.031338  0  0  -0.110282  0  4.055399  0  0  -0.012494  -0.091867  0  4.015288  0
C  C49  1  0.38058309  0.24925298  0.15434374  1  0  -0.112428  0  3.788194  0  0  -0.098561  0  4.031456  0  0  -0.109879  0  4.055507  0  0  -0.012142  -0.091425  0  4.015369  0
C  C50  1  0.86983374  0.24924464  0.65439493  1  0  -0.113096  0  3.788714  0  0  -0.098928  0  4.031372  0  0  -0.110227  0  4.055439  0  0  -0.012507  -0.091813  0  4.015315  0
C  C51  1  0.61940973  0.75074122  0.84565895  1  0  -0.11222  0  3.78803  0  0  -0.098411  0  4.031235  0  0  -0.109731  0  4.055295  0  0  -0.012118  -0.091275  0  4.015151  0
C  C52  1  0.35426891  0.78687403  0.40643465  1  0  0.510744  0  3.80861  0  0  0.464955  0  4.096229  0  0  0.495383  0  4.095111  0  0  0.245109  0.44442  0  4.0966  0
C  C53  1  0.56891255  0.21312091  0.09361810  1  0  0.510163  0  3.808392  0  0  0.464521  0  4.095974  0  0  0.495072  0  4.094678  0  0  0.24545  0.443969  0  4.096354  0
C  C54  1  0.64574806  0.21313275  0.59356317  1  0  0.510471  0  3.808966  0  0  0.464716  0  4.096519  0  0  0.495143  0  4.095408  0  0  0.244957  0.444215  0  4.096843  0
C  C55  1  0.43107002  0.78687263  0.90638084  1  0  0.510064  0  3.808501  0  0  0.464608  0  4.09581  0  0  0.495161  0  4.094512  0  0  0.245419  0.444051  0  4.096181  0
C  C56  1  0.78468278  0.56062300  0.43209546  1  0  -0.019681  0  3.669131  0  0  -0.049835  0  3.924193  0  0  -0.044725  0  3.940193  0  0  -0.06526  -0.052729  0  3.913155  0
C  C57  1  0.22576337  0.43913380  0.06749409  1  0  -0.017674  0  3.672752  0  0  -0.048601  0  3.927593  0  0  -0.043483  0  3.943569  0  0  -0.06528  -0.051471  0  3.916631  0
C  C58  1  0.21534247  0.43938841  0.56790383  1  0  -0.019577  0  3.669192  0  0  -0.049778  0  3.924232  0  0  -0.044676  0  3.940243  0  0  -0.065322  -0.052674  0  3.913193  0
C  C59  1  0.77420465  0.56085841  0.93250884  1  0  -0.017545  0  3.672601  0  0  -0.048375  0  3.927425  0  0  -0.043266  0  3.943398  0  0  -0.065102  -0.051251  0  3.91647  0
C  C60  1  0.56873461  0.52702620  0.37458136  1  0  -0.07158  0  3.738601  0  0  -0.086103  0  3.999089  0  0  -0.091467  0  4.019547  0  0  -0.085258  -0.082774  0  3.985234  0
C  C61  1  0.04341519  0.47282652  0.12498244  1  0  -0.074221  0  3.741249  0  0  -0.089039  0  4.002143  0  0  -0.094381  0  4.022571  0  0  -0.086202  -0.085725  0  3.988325  0
C  C62  1  0.43127146  0.47298257  0.62541804  1  0  -0.071344  0  3.738451  0  0  -0.085923  0  3.99899  0  0  -0.091285  0  4.019438  0  0  -0.085219  -0.082594  0  3.985136  0
C  C63  1  0.95654918  0.52716238  0.87502167  1  0  -0.074539  0  3.741333  0  0  -0.089358  0  4.002298  0  0  -0.09468  0  4.022698  0  0  -0.086468  -0.086048  0  3.988477  0
C  C64  1  0.53731134  0.56737800  0.30875548  1  0  -0.087705  0  3.70986  0  0  -0.113339  0  3.964574  0  0  -0.111892  0  3.983547  0  0  -0.078616  -0.113913  0  3.951528  0
C  C65  1  0.97123483  0.43257872  0.19086024  1  0  -0.086139  0  3.708887  0  0  -0.111614  0  3.962665  0  0  -0.110201  0  3.981613  0  0  -0.078006  -0.11217  0  3.949648  0
C  C66  1  0.46270762  0.43262879  0.69124355  1  0  -0.087808  0  3.709735  0  0  -0.113434  0  3.964477  0  0  -0.111954  0  3.983477  0  0  -0.078635  -0.114016  0  3.95144  0
C  C67  1  0.02875038  0.56741613  0.80914621  1  0  -0.086001  0  3.708926  0  0  -0.111485  0  3.962743  0  0  -0.110065  0  3.981686  0  0  -0.077926  -0.112036  0  3.949722  0
C  C68  1  0.72305978  0.64214827  0.29722341  1  0  0.045949  0  3.785845  0  0  0.063643  0  4.018405  0  0  0.060237  0  4.042586  0  0  -0.005711  0.065589  0  4.002064  0
C  C69  1  0.08189113  0.35782338  0.20248213  1  0  0.046189  0  3.785875  0  0  0.065489  0  4.015876  0  0  0.062139  0  4.039973  0  0  -0.004867  0.067395  0  3.999598  0
C  C70  1  0.27695951  0.35785521  0.70277015  1  0  0.045977  0  3.785731  0  0  0.063507  0  4.018519  0  0  0.060101  0  4.042691  0  0  -0.005756  0.065462  0  4.002182  0
C  C71  1  0.91812086  0.64217346  0.79752530  1  0  0.046258  0  3.78626  0  0  0.065504  0  4.016337  0  0  0.06213  0  4.040482  0  0  -0.004821  0.067409  0  4.000058  0
C  C72  1  0.69674251  0.68504598  0.23041768  1  0  -0.069002  0  3.665329  0  0  -0.093004  0  3.913579  0  0  -0.091759  0  3.9321  0  0  -0.069743  -0.09351  0  3.900964  0
C  C73  1  0.01263985  0.31514173  0.26945174  1  0  -0.068574  0  3.663197  0  0  -0.093157  0  3.910703  0  0  -0.091838  0  3.929248  0  0  -0.069287  -0.093688  0  3.89805  0
C  C74  1  0.30327545  0.31495485  0.76957901  1  0  -0.068862  0  3.665294  0  0  -0.092804  0  3.913605  0  0  -0.091555  0  3.932124  0  0  -0.06964  -0.093315  0  3.900991  0
C  C75  1  0.98736420  0.68485114  0.73055372  1  0  -0.068675  0  3.663557  0  0  -0.093264  0  3.91104  0  0  -0.091966  0  3.929574  0  0  -0.069309  -0.093737  0  3.89841  0
C  C76  1  0.88034666  0.75853039  0.22211792  1  0  -0.080388  0  3.734353  0  0  -0.092983  0  3.988797  0  0  -0.098869  0  4.010331  0  0  -0.087582  -0.089211  0  3.974309  0
C  C77  1  0.12284931  0.24178081  0.27793945  1  0  -0.081401  0  3.734748  0  0  -0.094063  0  3.989254  0  0  -0.099997  0  4.010837  0  0  -0.087707  -0.090291  0  3.974762  0
C  C78  1  0.11967594  0.24147177  0.77787419  1  0  -0.080614  0  3.734763  0  0  -0.093252  0  3.989156  0  0  -0.099141  0  4.010689  0  0  -0.087684  -0.08947  0  3.974652  0
C  C79  1  0.87715739  0.75821339  0.72206566  1  0  -0.08132  0  3.735003  0  0  -0.093963  0  3.989456  0  0  -0.099893  0  4.011049  0  0  -0.087646  -0.090181  0  3.974967  0
C  C80  1  0.09725172  0.79124659  0.27950101  1  0  -0.040429  0  3.699877  0  0  -0.067509  0  3.950519  0  0  -0.062502  0  3.96698  0  0  -0.06455  -0.070465  0  3.939282  0
C  C81  1  0.30705255  0.20896066  0.22059615  1  0  -0.038633  0  3.700458  0  0  -0.065974  0  3.950752  0  0  -0.061112  0  3.967226  0  0  -0.064088  -0.068825  0  3.939526  0
C  C82  1  0.90277253  0.20875888  0.72049656  1  0  -0.040102  0  3.699754  0  0  -0.067218  0  3.950376  0  0  -0.062214  0  3.966842  0  0  -0.064419  -0.070188  0  3.939154  0
C  C83  1  0.69294159  0.79103222  0.77940448  1  0  -0.038815  0  3.700469  0  0  -0.066106  0  3.950799  0  0  -0.061275  0  3.967261  0  0  -0.064226  -0.068952  0  3.939561  0
C  C84  1  0.57239785  0.78559839  0.53728182  1  0  -0.149186  0  3.631349  0  0  -0.213525  0  3.886262  0  0  -0.211561  0  3.890721  0  0  -0.075229  -0.21472  0  3.883088  0
C  C85  1  0.78862777  0.21420160  0.96268218  1  0  -0.147029  0  3.628806  0  0  -0.210002  0  3.882608  0  0  -0.207967  0  3.886999  0  0  -0.074577  -0.211353  0  3.879698  0
C  C86  1  0.42761682  0.21441170  0.46271602  1  0  -0.149049  0  3.631201  0  0  -0.213224  0  3.885875  0  0  -0.211248  0  3.890336  0  0  -0.075132  -0.21441  0  3.882647  0
C  C87  1  0.21136010  0.78579459  0.03731848  1  0  -0.146845  0  3.628828  0  0  -0.20973  0  3.882528  0  0  -0.207691  0  3.886916  0  0  -0.074537  -0.211169  0  3.87971  0
C  C88  1  0.48430959  0.86851960  0.59167280  1  0  0.664363  0  3.9537  0  0  0.628298  0  4.24978  0  0  0.659771  0  4.242512  0  0  0.157513  0.607003  0  4.253803  0
C  C89  1  0.61795011  0.13119098  0.90828541  1  0  0.663922  0  3.954238  0  0  0.627414  0  4.250648  0  0  0.65888  0  4.243371  0  0  0.157958  0.606135  0  4.254644  0
C  C90  1  0.51570309  0.13149049  0.40832988  1  0  0.664567  0  3.953545  0  0  0.628392  0  4.249691  0  0  0.659864  0  4.242422  0  0  0.157603  0.607103  0  4.253705  0
C  C91  1  0.38205990  0.86880190  0.09171341  1  0  0.663925  0  3.953818  0  0  0.62739  0  4.250248  0  0  0.658852  0  4.242978  0  0  0.158012  0.606135  0  4.254242  0
N  N92  1  0.37443375  0.74282147  0.47140547  1  0  -0.251794  0  3.40342  0  0  -0.169413  0  3.632542  0  0  -0.194714  0  3.651206  0  0  -0.245501  -0.152349  0  3.619433  0
N  N93  1  0.63308490  0.25697580  0.02849379  1  0  -0.253306  0  3.404061  0  0  -0.171247  0  3.633306  0  0  -0.196605  0  3.651869  0  0  -0.246494  -0.154144  0  3.620232  0
N  N94  1  0.62557694  0.25718862  0.52859479  1  0  -0.251826  0  3.403548  0  0  -0.169526  0  3.632658  0  0  -0.194832  0  3.651322  0  0  -0.245538  -0.152468  0  3.619543  0
N  N95  1  0.36689272  0.74301973  0.97150492  1  0  -0.25357  0  3.404309  0  0  -0.171543  0  3.633463  0  0  -0.196905  0  3.652027  0  0  -0.246532  -0.154418  0  3.620409  0
O  O96  1  0.21936146  0.63721379  0.54622935  1  0  -0.512529  0  1.938016  0  0  -0.467014  0  2.155948  0  0  -0.487663  0  2.150854  0  0  -0.273325  -0.45282  0  2.159083  0
O  O97  1  0.58435231  0.36245709  0.95351238  1  0  -0.513525  0  1.938727  0  0  -0.467651  0  2.156837  0  0  -0.488329  0  2.151807  0  0  -0.273979  -0.45342  0  2.159877  0
O  O98  1  0.78064660  0.36279895  0.45376899  1  0  -0.512508  0  1.93781  0  0  -0.467022  0  2.155739  0  0  -0.48766  0  2.150652  0  0  -0.273335  -0.45282  0  2.158885  0
O  O99  1  0.41561042  0.63753645  0.04648898  1  0  -0.51363  0  1.938537  0  0  -0.467783  0  2.156743  0  0  -0.488445  0  2.151696  0  0  -0.273986  -0.453544  0  2.15979  0
O  O100  1  0.51924707  0.85411043  0.40249118  1  0  -0.574041  0  1.945509  0  0  -0.537935  0  2.177634  0  0  -0.557218  0  2.172491  0  0  -0.327542  -0.524786  0  2.180813  0
O  O101  1  0.66715028  0.14608716  0.09781224  1  0  -0.573721  0  1.946115  0  0  -0.537295  0  2.177608  0  0  -0.556711  0  2.172587  0  0  -0.327887  -0.524126  0  2.180803  0
O  O102  1  0.48074775  0.14589966  0.59750968  1  0  -0.573914  0  1.945516  0  0  -0.537851  0  2.177673  0  0  -0.55713  0  2.172521  0  0  -0.327434  -0.524718  0  2.180848  0
O  O103  1  0.33282998  0.85390572  0.90218476  1  0  -0.573641  0  1.946014  0  0  -0.537288  0  2.17743  0  0  -0.556703  0  2.172403  0  0  -0.327881  -0.524116  0  2.180616  0
O  O104  1  0.66155024  0.91826062  0.64184700  1  0  -0.746222  0  1.946622  0  0  -0.700643  0  2.184303  0  0  -0.725539  0  2.176012  0  0  -0.485658  -0.682911  0  2.189289  0
O  O105  1  0.74576851  0.08165007  0.85801881  1  0  -0.746774  0  1.950591  0  0  -0.701077  0  2.188605  0  0  -0.725979  0  2.180303  0  0  -0.486541  -0.683297  0  2.193568  0
O  O106  1  0.33846342  0.08174351  0.35815637  1  0  -0.746354  0  1.946604  0  0  -0.700774  0  2.184355  0  0  -0.725674  0  2.176071  0  0  -0.485681  -0.683044  0  2.189345  0
O  O107  1  0.25426200  0.91834413  0.14198267  1  0  -0.746779  0  1.950119  0  0  -0.701048  0  2.188089  0  0  -0.725949  0  2.179794  0  0  -0.486568  -0.683275  0  2.193049  0
O  O108  1  0.24345867  0.87910007  0.58247174  1  0  -0.72723  0  2.004234  0  0  -0.680728  0  2.247257  0  0  -0.704531  0  2.23902  0  0  -0.513707  -0.663817  0  2.252061  0
O  O109  1  0.36652352  0.12033736  0.91759054  1  0  -0.72699  0  2.002397  0  0  -0.680157  0  2.245192  0  0  -0.704092  0  2.237239  0  0  -0.514499  -0.66328  0  2.250064  0
O  O110  1  0.75655136  0.12090869  0.41753069  1  0  -0.727266  0  2.004117  0  0  -0.680744  0  2.2472  0  0  -0.704544  0  2.238955  0  0  -0.513745  -0.663881  0  2.252087  0
O  O111  1  0.63348022  0.87965089  0.08240074  1  0  -0.726937  0  2.002411  0  0  -0.680124  0  2.245244  0  0  -0.704058  0  2.237295  0  0  -0.514442  -0.663246  0  2.250109  0
