# generated using pymatgen
data_CdH24C26(N2O3)2
_symmetry_space_group_name_H-M   'P 1'
_cell_length_a   10.09057781
_cell_length_b   10.14880500
_cell_length_c   13.20405135
_cell_angle_alpha   99.98054438
_cell_angle_beta   100.05158291
_cell_angle_gamma   108.93866616
_symmetry_Int_Tables_number   1
_chemical_formula_structural   CdH24C26(N2O3)2
_chemical_formula_sum   'Cd2 H48 C52 N8 O12'
_cell_volume   1220.36922976
_cell_formula_units_Z   2
loop_
 _symmetry_equiv_pos_site_id
 _symmetry_equiv_pos_as_xyz
  1  'x, y, z'
loop_
 _atom_site_type_symbol
 _atom_site_label
 _atom_site_symmetry_multiplicity
 _atom_site_fract_x
 _atom_site_fract_y
 _atom_site_fract_z
 _atom_site_occupancy
 _atom_site_hle17_bader_spin_density
 _atom_site_hle17_ddec_charge
 _atom_site_hle17_ddec_spin_density
 _atom_site_hle17_ddec_sum_bond_order
 _atom_site_hle17_magmom
 _atom_site_hse06_10hf_bader_spin_density
 _atom_site_hse06_10hf_ddec_charge
 _atom_site_hse06_10hf_ddec_spin_density
 _atom_site_hse06_10hf_ddec_sum_bond_order
 _atom_site_hse06_10hf_magmom
 _atom_site_hse06_bader_spin_density
 _atom_site_hse06_ddec_charge
 _atom_site_hse06_ddec_spin_density
 _atom_site_hse06_ddec_sum_bond_order
 _atom_site_hse06_magmom
 _atom_site_pbe_bader_spin_density
 _atom_site_pbe_cm5_charge
 _atom_site_pbe_ddec_charge
 _atom_site_pbe_ddec_spin_density
 _atom_site_pbe_ddec_sum_bond_order
 _atom_site_pbe_magmom
Cd  Cd0  1  0.36303959  0.08113968  0.93833025  1  0  1.102667  0  1.675348  0  0  0.909226  0  2.116488  0  0  0.968963  0  2.065307  0  0  0.766402  0.863625  0  2.15321  0
Cd  Cd1  1  0.63696067  0.91886080  0.06166945  1  0  1.102677  0  1.675324  0  0  0.90924  0  2.116465  0  0  0.968971  0  2.065284  0  0  0.766421  0.863637  0  2.153188  0
H  H2  1  0.34378342  0.22676939  0.76042283  1  0  0.090932  0  0.964708  0  0  0.096536  0  1.03298  0  0  0.099417  0  1.030307  0  0  0.120723  0.09457  0  1.034465  0
H  H3  1  0.65621623  0.77323217  0.23957692  1  0  0.090939  0  0.964713  0  0  0.096553  0  1.032968  0  0  0.099433  0  1.030298  0  0  0.120733  0.094587  0  1.034452  0
H  H4  1  0.43757703  0.28702055  0.60742283  1  0  0.111874  0  0.977932  0  0  0.122817  0  1.03771  0  0  0.126199  0  1.035991  0  0  0.113955  0.120164  0  1.039544  0
H  H5  1  0.56242323  0.71297994  0.39257763  1  0  0.111885  0  0.977931  0  0  0.122833  0  1.0377  0  0  0.126213  0  1.035979  0  0  0.11396  0.12018  0  1.039533  0
H  H6  1  0.51653632  0.30931271  0.49253812  1  0  0.28226  0  0.963402  0  0  0.2623  0  1.034383  0  0  0.270211  0  1.028326  0  0  0.301396  0.256797  0  1.038554  0
H  H7  1  0.48346317  0.69068564  0.50746272  1  0  0.282231  0  0.963478  0  0  0.262231  0  1.034504  0  0  0.27014  0  1.028448  0  0  0.301354  0.256728  0  1.038675  0
H  H8  1  0.36643790  0.26977392  0.20986483  1  0  0.299264  0  0.944873  0  0  0.27906  0  1.014585  0  0  0.287486  0  1.008398  0  0  0.298711  0.273051  0  1.019033  0
H  H9  1  0.63356136  0.73022657  0.79013549  1  0  0.299243  0  0.944898  0  0  0.279038  0  1.014611  0  0  0.287465  0  1.008425  0  0  0.298697  0.273026  0  1.019061  0
H  H10  1  0.68637506  0.01671625  0.64967794  1  0  0.112758  0  0.952719  0  0  0.119699  0  1.016577  0  0  0.123477  0  1.014876  0  0  0.10859  0.117279  0  1.017317  0
H  H11  1  0.31362559  0.98328531  0.35032195  1  0  0.11274  0  0.952761  0  0  0.119688  0  1.01661  0  0  0.123466  0  1.014909  0  0  0.108577  0.117264  0  1.017349  0
H  H12  1  0.57302298  0.96034214  0.80102329  1  0  0.077536  0  0.945816  0  0  0.086033  0  1.012422  0  0  0.088481  0  1.010191  0  0  0.11507  0.084079  0  1.014539  0
H  H13  1  0.42697628  0.03965834  0.19897628  1  0  0.077591  0  0.945779  0  0  0.086074  0  1.012396  0  0  0.088523  0  1.010164  0  0  0.115079  0.084119  0  1.014515  0
H  H14  1  0.64641107  0.23136430  0.32905597  1  0  0.037992  0  0.925637  0  0  0.050531  0  0.992567  0  0  0.050157  0  0.992977  0  0  0.104665  0.050811  0  0.992169  0
H  H15  1  0.35358719  0.76863620  0.67094498  1  0  0.038086  0  0.925654  0  0  0.050587  0  0.99261  0  0  0.050212  0  0.993021  0  0  0.10469  0.050863  0  0.992214  0
H  H16  1  0.81634765  0.52125198  0.48807411  1  0  0.075148  0  0.948969  0  0  0.091198  0  1.014425  0  0  0.092161  0  1.014555  0  0  0.090689  0.090432  0  1.014467  0
H  H17  1  0.18365262  0.47874852  0.51192711  1  0  0.075108  0  0.949003  0  0  0.091168  0  1.014439  0  0  0.092134  0  1.014566  0  0  0.090674  0.090402  0  1.01448  0
H  H18  1  0.87644483  0.37572364  0.46170346  1  0  0.07936  0  0.951052  0  0  0.095565  0  1.014489  0  0  0.096467  0  1.014891  0  0  0.092195  0.094941  0  1.014246  0
H  H19  1  0.12355342  0.62427685  0.53829673  1  0  0.079378  0  0.951076  0  0  0.095573  0  1.014505  0  0  0.096474  0  1.014908  0  0  0.092215  0.09495  0  1.014262  0
H  H20  1  0.97892722  0.56288919  0.36441236  1  0  0.066428  0  0.939061  0  0  0.085985  0  0.997171  0  0  0.086832  0  0.997349  0  0  0.089477  0.085297  0  0.997169  0
H  H21  1  0.02107104  0.43711130  0.63558783  1  0  0.066453  0  0.939061  0  0  0.086015  0  0.997163  0  0  0.086861  0  0.997342  0  0  0.089486  0.085327  0  0.997162  0
H  H22  1  0.86552795  0.39710786  0.27432989  1  0  0.054791  0  0.939217  0  0  0.074614  0  1.000902  0  0  0.074618  0  1.002343  0  0  0.083634  0.074587  0  0.999872  0
H  H23  1  0.13447131  0.60289264  0.72567119  1  0  0.054846  0  0.939144  0  0  0.074664  0  1.000833  0  0  0.07467  0  1.002273  0  0  0.083657  0.074637  0  0.999804  0
H  H24  1  0.80530434  0.59779878  0.21666271  1  0  0.072382  0  0.94203  0  0  0.089497  0  1.00403  0  0  0.090489  0  1.004304  0  0  0.088655  0.08875  0  1.003922  0
H  H25  1  0.19469553  0.40220063  0.78333755  1  0  0.07238  0  0.942003  0  0  0.089497  0  1.004007  0  0  0.090492  0  1.004278  0  0  0.088655  0.088748  0  1.003901  0
H  H26  1  0.77953449  0.65595548  0.34342937  1  0  0.064038  0  0.926633  0  0  0.086167  0  0.981636  0  0  0.086754  0  0.982148  0  0  0.089326  0.085864  0  0.981081  0
H  H27  1  0.22046437  0.34404393  0.65657001  1  0  0.064035  0  0.926656  0  0  0.086167  0  0.981662  0  0  0.086754  0  0.982173  0  0  0.089326  0.085864  0  0.981107  0
H  H28  1  0.54333351  0.50967169  0.21074557  1  0  0.08346  0  0.938557  0  0  0.097852  0  1.003596  0  0  0.098407  0  1.004665  0  0  0.092857  0.097375  0  1.003027  0
H  H29  1  0.45666636  0.49032772  0.78925393  1  0  0.083463  0  0.938541  0  0  0.097862  0  1.003585  0  0  0.098417  0  1.004654  0  0  0.092863  0.097388  0  1.003019  0
H  H30  1  0.60352198  0.36512619  0.18320772  1  0  0.082913  0  0.949849  0  0  0.099096  0  1.013967  0  0  0.100188  0  1.013786  0  0  0.090956  0.098101  0  1.014319  0
H  H31  1  0.39647688  0.63487322  0.81679241  1  0  0.082891  0  0.949867  0  0  0.099078  0  1.013995  0  0  0.100171  0  1.013813  0  0  0.090952  0.098085  0  1.01435  0
H  H32  1  0.55623797  0.48574342  0.39800138  1  0  0.06106  0  0.934623  0  0  0.07226  0  0.997883  0  0  0.073448  0  0.996565  0  0  0.111765  0.071168  0  0.999226  0
H  H33  1  0.44376068  0.51425814  0.60199900  1  0  0.061094  0  0.934615  0  0  0.072293  0  0.99787  0  0  0.073482  0  0.996553  0  0  0.111765  0.071197  0  0.999219  0
H  H34  1  0.06273583  0.26650445  0.41071273  1  0  0.117644  0  0.949138  0  0  0.128022  0  1.006256  0  0  0.131939  0  1.004317  0  0  0.115054  0.125048  0  1.008088  0
H  H35  1  0.93726303  0.73349495  0.58928588  1  0  0.117618  0  0.949163  0  0  0.128006  0  1.00627  0  0  0.131924  0  1.004329  0  0  0.115041  0.125033  0  1.008102  0
H  H36  1  0.80862237  0.11281437  0.31110704  1  0  0.083136  0  0.951517  0  0  0.085895  0  1.024929  0  0  0.089204  0  1.022078  0  0  0.114571  0.083723  0  1.026555  0
H  H37  1  0.19137711  0.88718397  0.68889304  1  0  0.083174  0  0.951521  0  0  0.085936  0  1.024918  0  0  0.089246  0  1.022065  0  0  0.114584  0.083764  0  1.026543  0
H  H38  1  0.94886182  0.91276197  0.07253764  1  0  0.08727  0  0.929776  0  0  0.095889  0  0.991681  0  0  0.098356  0  0.98999  0  0  0.119687  0.093862  0  0.993384  0
H  H39  1  0.05113906  0.08723743  0.92746199  1  0  0.087288  0  0.929746  0  0  0.095904  0  0.991651  0  0  0.098375  0  0.98995  0  0  0.119689  0.093876  0  0.993357  0
H  H40  1  0.20419687  0.05329496  0.16096947  1  0  0.123119  0  0.972277  0  0  0.129523  0  1.039046  0  0  0.133351  0  1.036697  0  0  0.112382  0.126751  0  1.041012  0
H  H41  1  0.79580339  0.94670552  0.83903023  1  0  0.123104  0  0.972291  0  0  0.12951  0  1.039065  0  0  0.133338  0  1.036717  0  0  0.112369  0.126738  0  1.041031  0
H  H42  1  0.10598571  0.74969470  0.12268304  1  0  0.094292  0  0.951234  0  0  0.104103  0  1.014331  0  0  0.106993  0  1.012578  0  0  0.102993  0.101799  0  1.016039  0
H  H43  1  0.89401456  0.25030579  0.87731741  1  0  0.094312  0  0.951283  0  0  0.104123  0  1.014376  0  0  0.107012  0  1.012624  0  0  0.103009  0.101819  0  1.016086  0
H  H44  1  0.03123225  0.53079332  0.19235020  1  0  0.089453  0  0.968911  0  0  0.100544  0  1.028769  0  0  0.103165  0  1.028514  0  0  0.100021  0.098542  0  1.02921  0
H  H45  1  0.96877165  0.46920611  0.80765136  1  0  0.08945  0  0.968892  0  0  0.100537  0  1.028758  0  0  0.103159  0  1.028503  0  0  0.100035  0.098537  0  1.029199  0
H  H46  1  0.12686069  0.33691662  0.14364084  1  0  0.091226  0  0.967323  0  0  0.099181  0  1.033766  0  0  0.101704  0  1.032844  0  0  0.098252  0.097176  0  1.034824  0
H  H47  1  0.87314298  0.66308494  0.85635945  1  0  0.091272  0  0.967226  0  0  0.099234  0  1.033661  0  0  0.101758  0  1.03274  0  0  0.098298  0.09723  0  1.034724  0
H  H48  1  0.37337972  0.58229571  0.96022587  1  0  0.108314  0  0.970468  0  0  0.115504  0  1.038256  0  0  0.118941  0  1.035555  0  0  0.10776  0.112981  0  1.040279  0
H  H49  1  0.62662093  0.41770584  0.03977326  1  0  0.10831  0  0.9704  0  0  0.115479  0  1.038232  0  0  0.118934  0  1.035509  0  0  0.107754  0.112958  0  1.040254  0
C  C50  1  0.41885136  0.18128664  0.73275656  1  0  0.13362  0  3.692128  0  0  0.103127  0  3.94459  0  0  0.110153  0  3.96211  0  0  0.048884  0.098666  0  3.932267  0
C  C51  1  0.58114890  0.81871383  0.26724237  1  0  0.133646  0  3.692105  0  0  0.103133  0  3.944592  0  0  0.110158  0  3.962115  0  0  0.04888  0.098674  0  3.932265  0
C  C52  1  0.47476847  0.21610561  0.64799844  1  0  -0.117349  0  3.677389  0  0  -0.138499  0  3.918424  0  0  -0.143103  0  3.937412  0  0  -0.072815  -0.135956  0  3.906408  0
C  C53  1  0.52523179  0.78389487  0.35200126  1  0  -0.1174  0  3.677399  0  0  -0.138557  0  3.918461  0  0  -0.143159  0  3.937451  0  0  -0.07285  -0.136012  0  3.906442  0
C  C54  1  0.57403960  0.15803570  0.61712254  1  0  0.013396  0  3.70844  0  0  0.031718  0  3.937371  0  0  0.030983  0  3.957336  0  0  0.013081  0.032165  0  3.924204  0
C  C55  1  0.42596307  0.84196587  0.38287837  1  0  0.013471  0  3.708529  0  0  0.031774  0  3.937441  0  0  0.031037  0  3.957411  0  0  0.013137  0.032218  0  3.924273  0
C  C56  1  0.60991410  0.06385313  0.67250366  1  0  -0.115434  0  3.689777  0  0  -0.138904  0  3.942432  0  0  -0.144278  0  3.962515  0  0  -0.075314  -0.135406  0  3.928826  0
C  C57  1  0.39008616  0.93614736  0.32749680  1  0  -0.115453  0  3.689877  0  0  -0.138922  0  3.942519  0  0  -0.144296  0  3.962604  0  0  -0.075351  -0.135423  0  3.92891  0
C  C58  1  0.54776067  0.03305869  0.75589748  1  0  0.129867  0  3.706958  0  0  0.096026  0  3.971853  0  0  0.103111  0  3.989636  0  0  0.046612  0.091115  0  3.960163  0
C  C59  1  0.45224000  0.96694287  0.24410317  1  0  0.12977  0  3.706938  0  0  0.095936  0  3.971836  0  0  0.103019  0  3.989622  0  0  0.046577  0.091026  0  3.960146  0
C  C60  1  0.64416964  0.19186479  0.52776328  1  0  0.523307  0  3.875846  0  0  0.479533  0  4.162073  0  0  0.507592  0  4.161899  0  0  0.233399  0.460663  0  4.161837  0
C  C61  1  0.35583204  0.80813680  0.47223902  1  0  0.523252  0  3.876078  0  0  0.479534  0  4.162186  0  0  0.507591  0  4.162011  0  0  0.233409  0.460665  0  4.161947  0
C  C62  1  0.65305110  0.32657466  0.38782123  1  0  0.147002  0  3.582095  0  0  0.124432  0  3.825434  0  0  0.128804  0  3.84088  0  0  0.016613  0.121692  0  3.814653  0
C  C63  1  0.34694996  0.67342798  0.61217961  1  0  0.146894  0  3.582334  0  0  0.124314  0  3.825655  0  0  0.128683  0  3.841102  0  0  0.016562  0.121577  0  3.814872  0
C  C64  1  0.81108086  0.43118379  0.42543676  1  0  -0.166772  0  3.658207  0  0  -0.210949  0  3.918102  0  0  -0.213358  0  3.932644  0  0  -0.167997  -0.209057  0  3.907728  0
C  C65  1  0.18891841  0.56881672  0.57456508  1  0  -0.166745  0  3.658355  0  0  -0.210883  0  3.918174  0  0  -0.21329  0  3.932716  0  0  -0.167977  -0.208994  0  3.907804  0
C  C66  1  0.86608633  0.48745082  0.33476062  1  0  -0.105469  0  3.705329  0  0  -0.145726  0  3.969972  0  0  -0.146796  0  3.985285  0  0  -0.168086  -0.144765  0  3.959284  0
C  C67  1  0.13391355  0.51254859  0.66523964  1  0  -0.10559  0  3.705443  0  0  -0.145864  0  3.970087  0  0  -0.146936  0  3.985399  0  0  -0.168138  -0.144903  0  3.9594  0
C  C68  1  0.77014170  0.56009736  0.28420609  1  0  -0.10122  0  3.678665  0  0  -0.140949  0  3.939834  0  0  -0.141788  0  3.953752  0  0  -0.166151  -0.140254  0  3.930099  0
C  C69  1  0.22985616  0.43990204  0.71579316  1  0  -0.101159  0  3.678634  0  0  -0.140893  0  3.939831  0  0  -0.141731  0  3.953748  0  0  -0.166128  -0.140198  0  3.930105  0
C  C70  1  0.61252686  0.45686881  0.24613112  1  0  -0.165205  0  3.65125  0  0  -0.206823  0  3.907402  0  0  -0.20813  0  3.920344  0  0  -0.167682  -0.205831  0  3.898753  0
C  C71  1  0.38747100  0.54313060  0.75386888  1  0  -0.165192  0  3.651196  0  0  -0.206856  0  3.907425  0  0  -0.208164  0  3.920366  0  0  -0.167708  -0.205842  0  3.898717  0
C  C72  1  0.55521350  0.39791007  0.33532476  1  0  0.124978  0  3.570931  0  0  0.10392  0  3.810066  0  0  0.108268  0  3.824233  0  0  0.014129  0.101083  0  3.800488  0
C  C73  1  0.44478476  0.60209042  0.66467543  1  0  0.1249  0  3.571  0  0  0.103858  0  3.810121  0  0  0.108202  0  3.824292  0  0  0.014111  0.101017  0  3.800545  0
C  C74  1  0.30693074  0.27401284  0.35084594  1  0  0.530754  0  3.843241  0  0  0.483494  0  4.130835  0  0  0.512597  0  4.129284  0  0  0.240581  0.46405  0  4.130976  0
C  C75  1  0.69306913  0.72598656  0.64915356  1  0  0.53081  0  3.84318  0  0  0.483539  0  4.130806  0  0  0.512647  0  4.129246  0  0  0.240604  0.464086  0  4.130953  0
C  C76  1  0.15507463  0.17738627  0.29271554  1  0  -0.003175  0  3.74108  0  0  0.016294  0  3.971997  0  0  0.014609  0  3.991976  0  0  0.008054  0.01747  0  3.958552  0
C  C77  1  0.84492485  0.82261207  0.70728454  1  0  -0.003112  0  3.740974  0  0  0.016329  0  3.971951  0  0  0.014641  0  3.99193  0  0  0.008066  0.017504  0  3.958511  0
C  C78  1  0.04097043  0.19006600  0.33540576  1  0  -0.113224  0  3.683991  0  0  -0.132808  0  3.921101  0  0  -0.137425  0  3.940286  0  0  -0.069721  -0.129947  0  3.90851  0
C  C79  1  0.95902905  0.80993233  0.66459356  1  0  -0.113255  0  3.683968  0  0  -0.132839  0  3.921097  0  0  -0.137454  0  3.940281  0  0  -0.069733  -0.129978  0  3.908508  0
C  C80  1  0.89969959  0.10469384  0.27988268  1  0  0.128561  0  3.700462  0  0  0.101215  0  3.952403  0  0  0.107206  0  3.970184  0  0  0.050621  0.097344  0  3.939514  0
C  C81  1  0.10029988  0.89530449  0.72011664  1  0  0.128496  0  3.700412  0  0  0.101149  0  3.952367  0  0  0.10714  0  3.970145  0  0  0.050598  0.097282  0  3.939477  0
C  C82  1  0.97790111  0.99209147  0.14789147  1  0  0.140304  0  3.684942  0  0  0.112046  0  3.93674  0  0  0.11833  0  3.953886  0  0  0.050877  0.107708  0  3.925757  0
C  C83  1  0.02209836  0.00790685  0.85210709  1  0  0.140214  0  3.685171  0  0  0.111974  0  3.936958  0  0  0.11826  0  3.954105  0  0  0.050826  0.107639  0  3.925977  0
C  C84  1  0.12217598  0.07295070  0.19814522  1  0  -0.127438  0  3.690425  0  0  -0.151584  0  3.941156  0  0  -0.155561  0  3.959474  0  0  -0.076974  -0.149289  0  3.929642  0
C  C85  1  0.87782389  0.92704870  0.80185429  1  0  -0.127441  0  3.690448  0  0  -0.151587  0  3.941188  0  0  -0.155565  0  3.959506  0  0  -0.076956  -0.14929  0  3.929673  0
C  C86  1  0.29143093  0.81425111  0.99843304  1  0  0.635948  0  3.915998  0  0  0.585776  0  4.201819  0  0  0.620812  0  4.19626  0  0  0.198002  0.562248  0  4.204133  0
C  C87  1  0.70856933  0.18574936  0.00156589  1  0  0.635914  0  3.916034  0  0  0.585734  0  4.201861  0  0  0.62077  0  4.196304  0  0  0.197972  0.562207  0  4.204176  0
C  C88  1  0.24457919  0.68047933  0.03711315  1  0  -0.084325  0  3.776262  0  0  -0.056399  0  4.008992  0  0  -0.067811  0  4.034296  0  0  -0.023286  -0.049451  0  3.992076  0
C  C89  1  0.75542047  0.31952223  0.96288736  1  0  -0.084385  0  3.776379  0  0  -0.05646  0  4.009105  0  0  -0.067874  0  4.034416  0  0  -0.023331  -0.049513  0  3.992189  0
C  C90  1  0.14763981  0.66466981  0.10271928  1  0  -0.044879  0  3.717758  0  0  -0.073065  0  3.966382  0  0  -0.070057  0  3.98649  0  0  -0.077201  -0.074413  0  3.952707  0
C  C91  1  0.85236107  0.33532960  0.89728112  1  0  -0.044928  0  3.717808  0  0  -0.073122  0  3.96644  0  0  -0.070114  0  3.986549  0  0  -0.077236  -0.074469  0  3.952766  0
C  C92  1  0.10667544  0.54249876  0.14180944  1  0  -0.080211  0  3.766266  0  0  -0.089383  0  4.016845  0  0  -0.094894  0  4.038806  0  0  -0.09154  -0.085767  0  4.002016  0
C  C93  1  0.89332623  0.45750281  0.85819134  1  0  -0.080146  0  3.766197  0  0  -0.089308  0  4.016776  0  0  -0.094817  0  4.038736  0  0  -0.09151  -0.085693  0  4.001948  0
C  C94  1  0.16066914  0.43422806  0.11522046  1  0  -0.049399  0  3.71213  0  0  -0.077375  0  3.961904  0  0  -0.073859  0  3.98013  0  0  -0.079862  -0.079625  0  3.949553  0
C  C95  1  0.83933213  0.56577243  0.88478013  1  0  -0.049494  0  3.711997  0  0  -0.077469  0  3.961784  0  0  -0.073955  0  3.980011  0  0  -0.079907  -0.079719  0  3.949435  0
C  C96  1  0.25579305  0.44791777  0.04859938  1  0  -0.073175  0  3.761661  0  0  -0.047069  0  3.997458  0  0  -0.057038  0  4.020125  0  0  -0.020088  -0.040434  0  3.982284  0
C  C97  1  0.74420861  0.55208379  0.95140064  1  0  -0.073031  0  3.761447  0  0  -0.046943  0  3.997255  0  0  -0.056915  0  4.019926  0  0  -0.020051  -0.04031  0  3.982081  0
C  C98  1  0.29779482  0.57156078  0.01034475  1  0  -0.052208  0  3.680847  0  0  -0.090305  0  3.928252  0  0  -0.08635  0  3.946948  0  0  -0.073235  -0.092193  0  3.916148  0
C  C99  1  0.70220745  0.42843970  0.98965445  1  0  -0.052251  0  3.680802  0  0  -0.090323  0  3.928199  0  0  -0.086381  0  3.94689  0  0  -0.07325  -0.092207  0  3.916091  0
C  C100  1  0.30821797  0.32965655  0.01364883  1  0  0.632456  0  3.919378  0  0  0.581866  0  4.210181  0  0  0.616284  0  4.204343  0  0  0.199281  0.55843  0  4.213203  0
C  C101  1  0.69178189  0.67034285  0.98634992  1  0  0.632408  0  3.919419  0  0  0.581818  0  4.210217  0  0  0.616239  0  4.204379  0  0  0.199272  0.558379  0  4.21324  0
N  N102  1  0.45508005  0.09201755  0.78669822  1  0  -0.346588  0  3.270593  0  0  -0.269619  0  3.538041  0  0  -0.290317  0  3.557973  0  0  -0.330127  -0.25503  0  3.523912  0
N  N103  1  0.54492083  0.90798187  0.21330218  1  0  -0.346541  0  3.270537  0  0  -0.26956  0  3.537975  0  0  -0.290258  0  3.55791  0  0  -0.330094  -0.254968  0  3.523839  0
N  N104  1  0.86829132  0.00891533  0.18666761  1  0  -0.330941  0  3.253883  0  0  -0.260112  0  3.51591  0  0  -0.278208  0  3.535139  0  0  -0.325095  -0.247219  0  3.501903  0
N  N105  1  0.13170855  0.99108407  0.81333189  1  0  -0.330812  0  3.254047  0  0  -0.259988  0  3.516066  0  0  -0.278085  0  3.535295  0  0  -0.325011  -0.247098  0  3.502061  0
N  N106  1  0.59977077  0.27960846  0.47604198  1  0  -0.461947  0  3.333214  0  0  -0.409601  0  3.583032  0  0  -0.432781  0  3.594281  0  0  -0.425548  -0.393818  0  3.574903  0
N  N107  1  0.40023012  0.72039096  0.52395918  1  0  -0.461847  0  3.333371  0  0  -0.409453  0  3.583129  0  0  -0.43262  0  3.594369  0  0  -0.425484  -0.393672  0  3.575001  0
N  N108  1  0.40456356  0.29847948  0.29187110  1  0  -0.451654  0  3.278713  0  0  -0.397393  0  3.527675  0  0  -0.420432  0  3.537864  0  0  -0.412532  -0.381703  0  3.520308  0
N  N109  1  0.59543570  0.70152101  0.70812923  1  0  -0.451645  0  3.278698  0  0  -0.397368  0  3.52765  0  0  -0.420409  0  3.537837  0  0  -0.412518  -0.38166  0  3.52027  0
O  O110  1  0.22641453  0.90157834  0.01256982  1  0  -0.616674  0  1.988463  0  0  -0.554604  0  2.229482  0  0  -0.583507  0  2.22239  0  0  -0.317211  -0.533477  0  2.234058  0
O  O111  1  0.77358613  0.09842321  0.98743007  1  0  -0.616649  0  1.988473  0  0  -0.554569  0  2.229478  0  0  -0.583473  0  2.222384  0  0  -0.317205  -0.533443  0  2.234056  0
O  O112  1  0.39762943  0.83992262  0.95309092  1  0  -0.68181  0  2.000721  0  0  -0.607871  0  2.257347  0  0  -0.637458  0  2.243983  0  0  -0.344982  -0.586289  0  2.265371  0
O  O113  1  0.60237083  0.16007785  0.04690801  1  0  -0.681764  0  2.000702  0  0  -0.607833  0  2.257351  0  0  -0.637406  0  2.243959  0  0  -0.344944  -0.586247  0  2.265372  0
O  O114  1  0.30332356  0.23524796  0.06839105  1  0  -0.664797  0  2.01711  0  0  -0.596106  0  2.262975  0  0  -0.625053  0  2.253535  0  0  -0.331941  -0.574678  0  2.269318  0
O  O115  1  0.69667530  0.76475144  0.93160833  1  0  -0.664785  0  2.017106  0  0  -0.596097  0  2.262973  0  0  -0.625044  0  2.253531  0  0  -0.331941  -0.574676  0  2.269332  0
O  O116  1  0.35148539  0.32233833  0.92922084  1  0  -0.61789  0  1.96678  0  0  -0.560802  0  2.208454  0  0  -0.589008  0  2.202164  0  0  -0.314741  -0.540554  0  2.211969  0
O  O117  1  0.64851347  0.67766107  0.07077778  1  0  -0.617864  0  1.966767  0  0  -0.560799  0  2.208491  0  0  -0.588982  0  2.202155  0  0  -0.314732  -0.540547  0  2.212007  0
O  O118  1  0.73576161  0.14151076  0.50578779  1  0  -0.552601  0  1.864525  0  0  -0.515414  0  2.069514  0  0  -0.534173  0  2.064223  0  0  -0.317226  -0.502754  0  2.072907  0
O  O119  1  0.26424247  0.85849190  0.49421496  1  0  -0.552592  0  1.864723  0  0  -0.515432  0  2.069687  0  0  -0.534191  0  2.064395  0  0  -0.317219  -0.502767  0  2.073075  0
O  O120  1  0.33644233  0.32571028  0.44908534  1  0  -0.565165  0  1.957274  0  0  -0.525204  0  2.188492  0  0  -0.544814  0  2.17992  0  0  -0.300586  -0.511535  0  2.193728  0
O  O121  1  0.66355755  0.67428914  0.55091569  1  0  -0.565215  0  1.957357  0  0  -0.525236  0  2.18857  0  0  -0.544846  0  2.179991  0  0  -0.300605  -0.51156  0  2.193796  0
