# generated using pymatgen
data_ZnH16C16N4O7
_symmetry_space_group_name_H-M   'P 1'
_cell_length_a   6.85185781
_cell_length_b   9.10217709
_cell_length_c   14.67702350
_cell_angle_alpha   84.69902716
_cell_angle_beta   79.60814767
_cell_angle_gamma   69.92957657
_symmetry_Int_Tables_number   1
_chemical_formula_structural   ZnH16C16N4O7
_chemical_formula_sum   'Zn2 H32 C32 N8 O14'
_cell_volume   845.20770452
_cell_formula_units_Z   2
loop_
 _symmetry_equiv_pos_site_id
 _symmetry_equiv_pos_as_xyz
  1  'x, y, z'
loop_
 _atom_site_type_symbol
 _atom_site_label
 _atom_site_symmetry_multiplicity
 _atom_site_fract_x
 _atom_site_fract_y
 _atom_site_fract_z
 _atom_site_occupancy
 _atom_site_pbe_bader_charge
 _atom_site_pbe_bader_spin_density
 _atom_site_pbe_cm5_charge
 _atom_site_pbe_ddec_charge
 _atom_site_pbe_ddec_spin_density
 _atom_site_pbe_ddec_sum_bond_order
 _atom_site_pbe_magmom
Zn  Zn0  1  0.00000117  0.50000314  0.50000324  1  1.310496  0  0.680822  0.836088  0  2.206548  0
Zn  Zn1  1  0.49999981  0.49999655  0.00000034  1  1.312923  0  0.68158  0.870677  0  2.231279  0
H  H2  1  0.12882919  0.93017876  0.42945753  1  0.114205  0  0.119184  0.096841  0  1.01411  0
H  H3  1  0.87118772  0.06982506  0.57053725  1  0.114094  0  0.11918  0.096893  0  1.013944  0
H  H4  1  0.24007750  0.00537393  0.09765198  1  0.107914  0  0.118499  0.090849  0  1.025691  0
H  H5  1  0.75991601  0.99463549  0.90234648  1  0.108015  0  0.118501  0.090831  0  1.025695  0
H  H6  1  0.94790712  0.52654063  0.29980903  1  0.155606  0  0.117447  0.097757  0  1.047446  0
H  H7  1  0.05206688  0.47345324  0.70020351  1  0.155661  0  0.117439  0.097682  0  1.047534  0
H  H8  1  0.83306442  0.73365315  0.18137820  1  0.104917  0  0.10963  0.120927  0  1.026226  0
H  H9  1  0.16690020  0.26634180  0.81863029  1  0.104572  0  0.109594  0.120808  0  1.026475  0
H  H10  1  0.60072747  0.06453398  0.40282456  1  0.119092  0  0.108715  0.119085  0  1.045643  0
H  H11  1  0.39928642  0.93546979  0.59718411  1  0.119183  0  0.108707  0.119066  0  1.04567  0
H  H12  1  0.71376958  0.83813866  0.51231705  1  0.131839  0  0.115236  0.084674  0  1.031745  0
H  H13  1  0.28624602  0.16187101  0.48768841  1  0.131877  0  0.115283  0.084758  0  1.031677  0
H  H14  1  0.34642949  0.43617407  0.19770207  1  0.110096  0  0.128126  0.101957  0  0.969655  0
H  H15  1  0.65356913  0.56382129  0.80229062  1  0.110055  0  0.128109  0.101897  0  0.969677  0
H  H16  1  0.42216095  0.22027103  0.31381374  1  0.121973  0  0.113279  0.129297  0  1.018043  0
H  H17  1  0.57782737  0.77973362  0.68618610  1  0.121964  0  0.113267  0.129256  0  1.018116  0
H  H18  1  0.83605642  0.92371725  0.09288727  1  0.112638  0  0.112776  0.12559  0  1.004418  0
H  H19  1  0.16394214  0.07627810  0.90711905  1  0.112672  0  0.112796  0.125629  0  1.004302  0
H  H20  1  0.74447135  0.15911088  0.98695733  1  0.1029  0  0.120482  0.088519  0  1.01218  0
H  H21  1  0.25553842  0.84087637  0.01304784  1  0.102845  0  0.120448  0.088502  0  1.012106  0
H  H22  1  0.71580323  0.37934907  0.61813152  1  0.599405  0  0.285852  0.346504  0  0.994507  0
H  H23  1  0.28419685  0.62064631  0.38186446  1  0.599379  0  0.28587  0.346498  0  0.994516  0
H  H24  1  0.70328995  0.38446961  0.51315137  1  0.647915  0  0.284348  0.375071  0  0.967629  0
H  H25  1  0.29672675  0.61552832  0.48684240  1  0.648185  0  0.284409  0.375176  0  0.967474  0
H  H26  1  0.12591159  0.47311503  0.06434998  1  0.626101  0  0.288095  0.373249  0  0.970481  0
H  H27  1  0.87409493  0.52687925  0.93564894  1  0.626059  0  0.28808  0.373205  0  0.97051  0
H  H28  1  0.07454543  0.62444613  0.99969102  1  0.656208  0  0.284435  0.374053  0  0.972214  0
H  H29  1  0.92545960  0.37554812  0.00031006  1  0.656174  0  0.284428  0.374073  0  0.97219  0
H  H30  1  0.66905492  0.53790262  0.14713852  1  0.637972  0  0.284831  0.375105  0  0.966074  0
H  H31  1  0.33095385  0.46209639  0.85285789  1  0.638039  0  0.284769  0.37503  0  0.966175  0
H  H32  1  0.46138472  0.69346960  0.14912195  1  0.629108  0  0.275065  0.324644  0  1.044684  0
H  H33  1  0.53862275  0.30652587  0.85087205  1  0.628969  0  0.275081  0.324685  0  1.044624  0
C  C34  1  0.14311331  0.95549022  0.35479112  1  0.498005  0  0.052765  0.020713  0  3.935452  0
C  C35  1  0.85689971  0.04451237  0.64520610  1  0.498298  0  0.052821  0.020802  0  3.935059  0
C  C36  1  0.05648790  0.10914552  0.31883208  1  -0.012353  0  0.020942  -0.024647  0  3.878028  0
C  C37  1  0.94352807  0.89085711  0.68116558  1  -0.012598  0  0.020956  -0.024482  0  3.87785  0
C  C38  1  0.08394808  0.12858222  0.22252888  1  -0.000952  0  0.005298  -0.061073  0  3.912872  0
C  C39  1  0.91605795  0.87142264  0.77746811  1  -0.001317  0  0.005281  -0.061189  0  3.91298  0
C  C40  1  0.20340215  0.99405746  0.17277663  1  0.505739  0  0.052891  0.030719  0  3.960639  0
C  C41  1  0.79660039  0.00594854  0.82721855  1  0.505811  0  0.052884  0.030738  0  3.960694  0
C  C42  1  0.95041715  0.23851645  0.38700238  1  1.637927  0  0.213113  0.574442  0  4.255532  0
C  C43  1  0.04959051  0.76148490  0.61299603  1  1.637773  0  0.212878  0.573848  0  4.255996  0
C  C44  1  0.99167570  0.28154006  0.16951913  1  1.645866  0  0.203929  0.559541  0  4.248465  0
C  C45  1  0.00832557  0.71847181  0.83047718  1  1.645796  0  0.203966  0.559661  0  4.248449  0
C  C46  1  0.86793599  0.64730516  0.31956788  1  0.519385  0  0.051046  0.105613  0  3.902831  0
C  C47  1  0.13204357  0.35269584  0.68044516  1  0.518984  0  0.051126  0.105855  0  3.903089  0
C  C48  1  0.80202067  0.76528210  0.25363867  1  -0.020964  0  -0.077281  -0.155738  0  3.911706  0
C  C49  1  0.19795394  0.23472002  0.74637131  1  -0.020628  0  -0.077377  -0.155769  0  3.911969  0
C  C50  1  0.70129078  0.91971311  0.28163738  1  -0.004048  0  0.0073  0.093217  0  3.986684  0
C  C51  1  0.29870372  0.08028454  0.71837119  1  -0.003864  0  0.007378  0.093328  0  3.986505  0
C  C52  1  0.66623732  0.94653095  0.37682855  1  -0.08245  0  -0.084152  -0.180565  0  3.951646  0
C  C53  1  0.33376992  0.05346804  0.62317685  1  -0.082173  0  -0.084077  -0.180499  0  3.951644  0
C  C54  1  0.73407794  0.82170519  0.43829317  1  0.465325  0  0.046456  0.100082  0  3.936293  0
C  C55  1  0.26592913  0.17829732  0.56171477  1  0.465112  0  0.046432  0.10003  0  3.936108  0
C  C56  1  0.45398605  0.32034761  0.17769882  1  0.475567  0  0.059404  0.120582  0  3.917726  0
C  C57  1  0.54600943  0.67965124  0.82230075  1  0.475512  0  0.059448  0.120645  0  3.917621  0
C  C58  1  0.49953742  0.19778927  0.24250217  1  0.028338  0  -0.071848  -0.153188  0  3.904326  0
C  C59  1  0.50045382  0.80221541  0.75750015  1  0.028442  0  -0.071831  -0.15312  0  3.904494  0
C  C60  1  0.64042645  0.05086376  0.21422099  1  -0.01857  0  0.012821  0.101874  0  3.97279  0
C  C61  1  0.35957655  0.94913165  0.78578223  1  -0.018707  0  0.012708  0.101684  0  3.973162  0
C  C62  1  0.72601713  0.03467655  0.11965881  1  -0.062125  0  -0.080381  -0.174598  0  3.932909  0
C  C63  1  0.27398510  0.96531414  0.88034543  1  -0.063089  0  -0.080462  -0.174763  0  3.932849  0
C  C64  1  0.67455371  0.16417231  0.05982616  1  0.4577  0  0.048828  0.101186  0  3.943243  0
C  C65  1  0.32545351  0.83581726  0.94017569  1  0.458855  0  0.048925  0.101316  0  3.943191  0
N  N66  1  0.27899298  0.85115136  0.21076166  1  -0.695054  0  -0.183677  -0.121505  0  3.379321  0
N  N67  1  0.72101120  0.14885113  0.78923290  1  -0.69497  0  -0.183755  -0.121518  0  3.379392  0
N  N68  1  0.24583538  0.83066146  0.30319482  1  -0.664021  0  -0.182291  -0.130916  0  3.316463  0
N  N69  1  0.75417159  0.16934459  0.69679998  1  -0.663995  0  -0.182257  -0.130972  0  3.316537  0
N  N70  1  0.83663523  0.67437436  0.41054944  1  -1.24163  0  -0.320138  -0.218387  0  3.516391  0
N  N71  1  0.16335489  0.32563265  0.58945966  1  -1.241544  0  -0.320189  -0.21856  0  3.516429  0
N  N72  1  0.54192246  0.30487612  0.08811361  1  -1.227828  0  -0.330832  -0.229777  0  3.566197  0
N  N73  1  0.45807777  0.69511573  0.91188528  1  -1.22793  0  -0.330826  -0.229692  0  3.566232  0
O  O74  1  0.06056058  0.32372419  0.39461975  1  -1.170151  0  -0.307691  -0.553328  0  2.28861  0
O  O75  1  0.93945719  0.67627140  0.60538020  1  -1.169966  0  -0.307675  -0.553118  0  2.288773  0
O  O76  1  0.77623296  0.24182509  0.43386240  1  -1.162452  0  -0.301717  -0.522106  0  2.155427  0
O  O77  1  0.22378063  0.75817634  0.56613075  1  -1.162474  0  -0.30152  -0.521792  0  2.155326  0
O  O78  1  0.07715744  0.28861927  0.08478549  1  -1.198381  0  -0.329196  -0.583726  0  2.207143  0
O  O79  1  0.92283514  0.71138896  0.91521107  1  -1.198262  0  -0.329229  -0.58379  0  2.206989  0
O  O80  1  0.83875079  0.38607182  0.21205736  1  -1.172843  0  -0.300424  -0.522752  0  2.186217  0
O  O81  1  0.16125638  0.61394011  0.78794051  1  -1.172806  0  -0.300384  -0.522729  0  2.186213  0
O  O82  1  0.71028971  0.45038742  0.56289812  1  -1.235197  0  -0.579118  -0.726794  0  2.098546  0
O  O83  1  0.28971776  0.54960805  0.43709520  1  -1.235303  0  -0.579207  -0.726877  0  2.098422  0
O  O84  1  0.15594737  0.57311995  0.05091981  1  -1.275567  0  -0.583508  -0.756622  0  2.089994  0
O  O85  1  0.84405822  0.42687314  0.94907788  1  -1.275473  0  -0.583469  -0.756582  0  2.089933  0
O  O86  1  0.57289615  0.61371779  0.10790357  1  -1.278916  0  -0.589743  -0.769804  0  2.18858  0
O  O87  1  0.42711241  0.38627534  0.89209251  1  -1.278883  0  -0.589705  -0.769771  0  2.188586  0
