# generated using pymatgen
data_H20Pb3C16O9
_symmetry_space_group_name_H-M   'P 1'
_cell_length_a   9.52751516
_cell_length_b   10.94845491
_cell_length_c   11.09878167
_cell_angle_alpha   64.65901705
_cell_angle_beta   79.12282857
_cell_angle_gamma   84.64804007
_symmetry_Int_Tables_number   1
_chemical_formula_structural   H20Pb3C16O9
_chemical_formula_sum   'H40 Pb6 C32 O18'
_cell_volume   1027.43010448
_cell_formula_units_Z   2
loop_
 _symmetry_equiv_pos_site_id
 _symmetry_equiv_pos_as_xyz
  1  'x, y, z'
loop_
 _atom_site_type_symbol
 _atom_site_label
 _atom_site_symmetry_multiplicity
 _atom_site_fract_x
 _atom_site_fract_y
 _atom_site_fract_z
 _atom_site_occupancy
 _atom_site_hle17_bader_spin_density
 _atom_site_hle17_ddec_charge
 _atom_site_hle17_ddec_spin_density
 _atom_site_hle17_ddec_sum_bond_order
 _atom_site_hle17_magmom
 _atom_site_hse06_10hf_bader_spin_density
 _atom_site_hse06_10hf_ddec_charge
 _atom_site_hse06_10hf_ddec_spin_density
 _atom_site_hse06_10hf_ddec_sum_bond_order
 _atom_site_hse06_10hf_magmom
 _atom_site_hse06_bader_spin_density
 _atom_site_hse06_ddec_charge
 _atom_site_hse06_ddec_spin_density
 _atom_site_hse06_ddec_sum_bond_order
 _atom_site_hse06_magmom
 _atom_site_pbe_bader_spin_density
 _atom_site_pbe_cm5_charge
 _atom_site_pbe_ddec_charge
 _atom_site_pbe_ddec_spin_density
 _atom_site_pbe_ddec_sum_bond_order
 _atom_site_pbe_magmom
H  H0  1  0.14417963  0.47768681  0.85445236  1  0  0.068287  0  0.935537  0  0  0.082805  0  0.993861  0  0  0.08395  0  0.994358  0  0  0.098499  0.081923  0  0.993964  0
H  H1  1  0.85583893  0.52221203  0.14551617  1  0  0.068315  0  0.935394  0  0  0.082809  0  0.99376  0  0  0.083957  0  0.994254  0  0  0.09842  0.081931  0  0.993844  0
H  H2  1  0.89562463  0.42177722  0.85606873  1  0  0.067692  0  0.957876  0  0  0.08713  0  1.017038  0  0  0.087525  0  1.017932  0  0  0.089548  0.086834  0  1.016398  0
H  H3  1  0.10439930  0.57816810  0.14392789  1  0  0.067765  0  0.957684  0  0  0.087235  0  1.016804  0  0  0.087624  0  1.017705  0  0  0.08964  0.086936  0  1.016176  0
H  H4  1  0.86023649  0.35814555  0.03314817  1  0  0.07865  0  0.945163  0  0  0.092753  0  1.012808  0  0  0.094485  0  1.012039  0  0  0.089349  0.091388  0  1.013563  0
H  H5  1  0.13976659  0.64183720  0.96683353  1  0  0.078677  0  0.944842  0  0  0.092787  0  1.012496  0  0  0.094515  0  1.01172  0  0  0.089305  0.091425  0  1.01325  0
H  H6  1  0.23316035  0.40386388  0.07496915  1  0  0.078507  0  0.961806  0  0  0.092726  0  1.028676  0  0  0.094823  0  1.027507  0  0  0.08773  0.091318  0  1.029327  0
H  H7  1  0.76686990  0.59611378  0.92495868  1  0  0.0783  0  0.961744  0  0  0.092518  0  1.028676  0  0  0.094624  0  1.027486  0  0  0.08768  0.091109  0  1.02933  0
H  H8  1  0.06005828  0.34814474  0.16323878  1  0  0.061758  0  0.93354  0  0  0.080266  0  0.996609  0  0  0.081583  0  0.996025  0  0  0.087468  0.079429  0  0.996979  0
H  H9  1  0.94001260  0.65179648  0.83674252  1  0  0.061606  0  0.933714  0  0  0.080123  0  0.996788  0  0  0.08143  0  0.996208  0  0  0.087459  0.079292  0  0.997138  0
H  H10  1  0.03787920  0.37325216  0.68558910  1  0  0.084463  0  0.926153  0  0  0.09651  0  0.984652  0  0  0.098224  0  0.984818  0  0  0.10112  0.095117  0  0.984852  0
H  H11  1  0.96221712  0.62685376  0.31438676  1  0  0.084349  0  0.926299  0  0  0.096586  0  0.984596  0  0  0.098305  0  0.984759  0  0  0.101275  0.095196  0  0.984804  0
H  H12  1  0.78759839  0.49149085  0.52913936  1  0  0.072172  0  0.941192  0  0  0.091174  0  1.003492  0  0  0.092183  0  1.003483  0  0  0.091974  0.090281  0  1.003877  0
H  H13  1  0.21252009  0.50860292  0.47080449  1  0  0.072052  0  0.941336  0  0  0.09089  0  1.003847  0  0  0.091903  0  1.003847  0  0  0.092001  0.089991  0  1.004233  0
H  H14  1  0.80053496  0.50026756  0.68164524  1  0  0.05986  0  0.945339  0  0  0.078951  0  1.007896  0  0  0.079602  0  1.007969  0  0  0.087521  0.078464  0  1.007733  0
H  H15  1  0.19952690  0.49983235  0.31831383  1  0  0.059986  0  0.945132  0  0  0.07895  0  1.007786  0  0  0.079598  0  1.007871  0  0  0.087668  0.078494  0  1.007583  0
H  H16  1  0.12317108  0.28331252  0.51625758  1  0  0.086736  0  0.958457  0  0  0.100491  0  1.023787  0  0  0.102941  0  1.022476  0  0  0.090599  0.098937  0  1.024318  0
H  H17  1  0.87692530  0.71675702  0.48370210  1  0  0.086707  0  0.959034  0  0  0.100535  0  1.024156  0  0  0.102995  0  1.022821  0  0  0.090703  0.098981  0  1.024685  0
H  H18  1  0.97756221  0.36230104  0.42946214  1  0  0.058788  0  0.931974  0  0  0.079389  0  0.991576  0  0  0.0802  0  0.991774  0  0  0.085325  0.078502  0  0.991991  0
H  H19  1  0.02251712  0.63779380  0.57051862  1  0  0.059357  0  0.931949  0  0  0.079715  0  0.991629  0  0  0.080523  0  0.99182  0  0  0.085515  0.078849  0  0.992012  0
H  H20  1  0.32471420  0.78837860  0.72620868  1  0  0.071039  0  0.910251  0  0  0.085591  0  0.965484  0  0  0.087358  0  0.964891  0  0  0.101575  0.084249  0  0.966041  0
H  H21  1  0.67524756  0.21153952  0.27384975  1  0  0.071159  0  0.910377  0  0  0.085704  0  0.965513  0  0  0.087478  0  0.964918  0  0  0.101554  0.084355  0  0.966067  0
H  H22  1  0.54941309  0.92372643  0.59729216  1  0  0.05876  0  0.978871  0  0  0.073543  0  1.052054  0  0  0.073464  0  1.053436  0  0  0.087497  0.073777  0  1.050712  0
H  H23  1  0.45056646  0.07621694  0.40274895  1  0  0.05863  0  0.978846  0  0  0.07341  0  1.052132  0  0  0.073329  0  1.053517  0  0  0.08736  0.073649  0  1.050783  0
H  H24  1  0.64810233  0.77131156  0.63395971  1  0  0.076884  0  0.934627  0  0  0.093752  0  0.999872  0  0  0.09521  0  0.999174  0  0  0.09497  0.092712  0  1.000238  0
H  H25  1  0.35184626  0.22861265  0.36599839  1  0  0.076816  0  0.934364  0  0  0.093742  0  0.999637  0  0  0.095207  0  0.998929  0  0  0.095045  0.092701  0  0.999997  0
H  H26  1  0.53693887  0.55008866  0.79469891  1  0  0.066006  0  0.929576  0  0  0.085578  0  0.99076  0  0  0.08641  0  0.991172  0  0  0.090127  0.085084  0  0.990169  0
H  H27  1  0.46310966  0.44987382  0.20530518  1  0  0.066045  0  0.93023  0  0  0.085644  0  0.9913  0  0  0.086478  0  0.99171  0  0  0.090161  0.085147  0  0.990713  0
H  H28  1  0.35447516  0.54038721  0.86897893  1  0  0.073037  0  0.956486  0  0  0.091194  0  1.019178  0  0  0.09177  0  1.020204  0  0  0.092263  0.090889  0  1.01834  0
H  H29  1  0.64557641  0.45951462  0.13105745  1  0  0.072893  0  0.956378  0  0  0.091138  0  1.018968  0  0  0.091713  0  1.01999  0  0  0.092296  0.090827  0  1.018141  0
H  H30  1  0.38942463  0.47057311  0.67714313  1  0  0.053986  0  0.9695  0  0  0.067037  0  1.045946  0  0  0.067736  0  1.046549  0  0  0.086307  0.066683  0  1.045702  0
H  H31  1  0.61064105  0.52937721  0.32285504  1  0  0.053946  0  0.969475  0  0  0.066987  0  1.045967  0  0  0.067682  0  1.046586  0  0  0.086296  0.066666  0  1.045686  0
H  H32  1  0.28014371  0.61627027  0.64404238  1  0  0.061441  0  0.928731  0  0  0.080328  0  0.991705  0  0  0.081502  0  0.990877  0  0  0.086916  0.079241  0  0.992658  0
H  H33  1  0.71987044  0.38362857  0.35599718  1  0  0.061199  0  0.928564  0  0  0.080165  0  0.991533  0  0  0.081349  0  0.990687  0  0  0.086933  0.079065  0  0.992498  0
H  H34  1  0.45258750  0.64872234  0.44000276  1  0  0.073706  0  0.960896  0  0  0.088172  0  1.031175  0  0  0.089558  0  1.030931  0  0  0.090747  0.086962  0  1.031659  0
H  H35  1  0.54741404  0.35124525  0.56001534  1  0  0.073674  0  0.960756  0  0  0.088113  0  1.031089  0  0  0.089497  0  1.030848  0  0  0.090731  0.086903  0  1.031574  0
H  H36  1  0.59882528  0.61002028  0.52976510  1  0  0.06986  0  0.948152  0  0  0.091543  0  1.005014  0  0  0.091821  0  1.006427  0  0  0.091778  0.091164  0  1.004051  0
H  H37  1  0.40120149  0.39006957  0.47020694  1  0  0.069696  0  0.948333  0  0  0.091394  0  1.005139  0  0  0.091665  0  1.006561  0  0  0.091735  0.091016  0  1.004175  0
H  H38  1  0.39166443  0.84989287  0.48307274  1  0  0.059732  0  0.930919  0  0  0.073026  0  0.993155  0  0  0.074479  0  0.992703  0  0  0.098146  0.072212  0  0.993342  0
H  H39  1  0.60815728  0.15001938  0.51708246  1  0  0.059981  0  0.931793  0  0  0.073255  0  0.993825  0  0  0.074681  0  0.993409  0  0  0.098233  0.072448  0  0.993999  0
Pb  Pb40  1  0.19135343  0.00947309  0.89217764  1  0  1.320533  0  1.475138  0  0  1.140312  0  1.859412  0  0  1.201476  0  1.816244  0  0  0.624219  1.095991  0  1.889354  0
Pb  Pb41  1  0.80869151  0.99069254  0.10767549  1  0  1.321169  0  1.473937  0  0  1.1411  0  1.857937  0  0  1.202283  0  1.814803  0  0  0.624724  1.096752  0  1.887861  0
Pb  Pb42  1  0.50593762  0.18745143  0.89425734  1  0  1.240963  0  1.648319  0  0  1.069962  0  2.03187  0  0  1.122335  0  1.996732  0  0  0.57367  1.03109  0  2.057902  0
Pb  Pb43  1  0.49409346  0.81256666  0.10583528  1  0  1.241047  0  1.6481  0  0  1.070011  0  2.031581  0  0  1.122393  0  1.996443  0  0  0.573677  1.031133  0  2.057596  0
Pb  Pb44  1  0.76728691  0.97571352  0.77622921  1  0  1.209528  0  1.625722  0  0  1.044569  0  1.996246  0  0  1.093316  0  1.964614  0  0  0.605454  1.005436  0  2.022541  0
Pb  Pb45  1  0.23272602  0.02422778  0.22382326  1  0  1.209135  0  1.626346  0  0  1.044196  0  1.996976  0  0  1.092972  0  1.96532  0  0  0.605178  1.005075  0  2.023271  0
C  C46  1  0.12153616  0.26531285  0.95537389  1  0  0.680876  0  3.808382  0  0  0.62845  0  4.106573  0  0  0.662893  0  4.099902  0  0  0.2237  0.605518  0  4.108854  0
C  C47  1  0.87835007  0.73463974  0.04466311  1  0  0.680999  0  3.807231  0  0  0.628725  0  4.105285  0  0  0.66317  0  4.098615  0  0  0.223868  0.605787  0  4.107565  0
C  C48  1  0.08262096  0.40529466  0.94867809  1  0  -0.117755  0  3.641833  0  0  -0.117692  0  3.881716  0  0  -0.12394  0  3.896497  0  0  -0.091592  -0.113789  0  3.871736  0
C  C49  1  0.91736960  0.59466991  0.05131703  1  0  -0.118141  0  3.641259  0  0  -0.118159  0  3.881234  0  0  -0.124414  0  3.896008  0  0  -0.091524  -0.114211  0  3.871162  0
C  C50  1  0.92246952  0.43403150  0.94217928  1  0  -0.11498  0  3.653077  0  0  -0.157556  0  3.910017  0  0  -0.158018  0  3.92352  0  0  -0.165908  -0.157174  0  3.900803  0
C  C51  1  0.07752744  0.56592498  0.05781005  1  0  -0.114917  0  3.652972  0  0  -0.157553  0  3.910054  0  0  -0.15799  0  3.923524  0  0  -0.165972  -0.157189  0  3.900844  0
C  C52  1  0.11888604  0.42379305  0.06901989  1  0  -0.120958  0  3.672764  0  0  -0.168132  0  3.934835  0  0  -0.168759  0  3.947888  0  0  -0.167017  -0.16722  0  3.925188  0
C  C53  1  0.88112317  0.57619576  0.93094287  1  0  -0.120438  0  3.671948  0  0  -0.167645  0  3.934107  0  0  -0.16826  0  3.947169  0  0  -0.166975  -0.166732  0  3.92444  0
C  C54  1  0.87990847  0.24189118  0.69771600  1  0  0.671448  0  3.812655  0  0  0.62211  0  4.106785  0  0  0.656399  0  4.100323  0  0  0.218365  0.598981  0  4.109176  0
C  C55  1  0.12016886  0.75812785  0.30231152  1  0  0.669975  0  3.813452  0  0  0.620497  0  4.107779  0  0  0.654778  0  4.10132  0  0  0.217533  0.597385  0  4.110149  0
C  C56  1  0.96175542  0.37262375  0.62247682  1  0  -0.120684  0  3.632091  0  0  -0.120372  0  3.875006  0  0  -0.12661  0  3.889118  0  0  -0.092084  -0.11611  0  3.865227  0
C  C57  1  0.03832143  0.62742055  0.37752930  1  0  -0.119927  0  3.631917  0  0  -0.119827  0  3.874922  0  0  -0.126058  0  3.889035  0  0  -0.092082  -0.115609  0  3.865226  0
C  C58  1  0.86428970  0.49819394  0.58878660  1  0  -0.114176  0  3.683155  0  0  -0.163591  0  3.950795  0  0  -0.163408  0  3.964164  0  0  -0.16628  -0.163345  0  3.941457  0
C  C59  1  0.13578683  0.50186552  0.41120417  1  0  -0.113996  0  3.683455  0  0  -0.163226  0  3.951141  0  0  -0.163068  0  3.964547  0  0  -0.166182  -0.162969  0  3.94177  0
C  C60  1  0.05084641  0.37176985  0.49105518  1  0  -0.11507  0  3.639542  0  0  -0.157724  0  3.896079  0  0  -0.158866  0  3.909573  0  0  -0.162396  -0.156811  0  3.88669  0
C  C61  1  0.94924606  0.62830678  0.50893641  1  0  -0.115662  0  3.639667  0  0  -0.158073  0  3.896089  0  0  -0.159187  0  3.90952  0  0  -0.162371  -0.157176  0  3.886733  0
C  C62  1  0.45892121  0.76495703  0.86592813  1  0  0.685979  0  3.819452  0  0  0.631904  0  4.118115  0  0  0.66692  0  4.110845  0  0  0.22053  0.607447  0  4.122423  0
C  C63  1  0.54107646  0.23508030  0.13408009  1  0  0.685031  0  3.819417  0  0  0.631167  0  4.117749  0  0  0.666189  0  4.110484  0  0  0.220332  0.606697  0  4.122052  0
C  C64  1  0.43202150  0.74542519  0.74507321  1  0  -0.113433  0  3.648311  0  0  -0.113798  0  3.890858  0  0  -0.119768  0  3.90465  0  0  -0.090716  -0.109854  0  3.881791  0
C  C65  1  0.56796053  0.25450806  0.25498706  1  0  -0.113659  0  3.649564  0  0  -0.113867  0  3.891664  0  0  -0.119861  0  3.905511  0  0  -0.090501  -0.1099  0  3.882556  0
C  C66  1  0.54145638  0.81693427  0.61818672  1  0  -0.134431  0  3.690107  0  0  -0.186822  0  3.943065  0  0  -0.186847  0  3.957973  0  0  -0.165938  -0.186296  0  3.932376  0
C  C67  1  0.45851709  0.18303134  0.38181360  1  0  -0.133968  0  3.690218  0  0  -0.186657  0  3.943318  0  0  -0.186674  0  3.958223  0  0  -0.165919  -0.186133  0  3.932614  0
C  C68  1  0.42990177  0.59429192  0.77609547  1  0  -0.121862  0  3.658773  0  0  -0.166591  0  3.917119  0  0  -0.167516  0  3.93175  0  0  -0.160737  -0.165641  0  3.906626  0
C  C69  1  0.57009253  0.40566153  0.22393344  1  0  -0.121776  0  3.659237  0  0  -0.166579  0  3.917562  0  0  -0.167498  0  3.93219  0  0  -0.160832  -0.165637  0  3.907074  0
C  C70  1  0.39031955  0.57817139  0.65635328  1  0  -0.102264  0  3.689685  0  0  -0.14418  0  3.957131  0  0  -0.144748  0  3.971087  0  0  -0.165609  -0.143431  0  3.946948  0
C  C71  1  0.60968771  0.42176992  0.34367584  1  0  -0.101835  0  3.689504  0  0  -0.143975  0  3.957173  0  0  -0.144543  0  3.971125  0  0  -0.165754  -0.143247  0  3.94696  0
C  C72  1  0.49085760  0.65538900  0.52424308  1  0  -0.115909  0  3.631238  0  0  -0.158832  0  3.88172  0  0  -0.159664  0  3.895616  0  0  -0.161831  -0.157941  0  3.871743  0
C  C73  1  0.50913053  0.34460994  0.47575145  1  0  -0.115513  0  3.63089  0  0  -0.158433  0  3.88125  0  0  -0.159269  0  3.895156  0  0  -0.161647  -0.157543  0  3.87128  0
C  C74  1  0.49928320  0.80509052  0.49749535  1  0  -0.1108  0  3.651086  0  0  -0.109449  0  3.88869  0  0  -0.115146  0  3.9025  0  0  -0.088176  -0.10564  0  3.878844  0
C  C75  1  0.50062299  0.19489439  0.50253178  1  0  -0.111523  0  3.652043  0  0  -0.109701  0  3.889015  0  0  -0.115382  0  3.902806  0  0  -0.088174  -0.105903  0  3.879206  0
C  C76  1  0.60018217  0.88056014  0.36684721  1  0  0.663293  0  3.832661  0  0  0.613704  0  4.1262  0  0  0.647287  0  4.121594  0  0  0.216483  0.590408  0  4.128427  0
C  C77  1  0.39963819  0.11947542  0.63311829  1  0  0.663637  0  3.832987  0  0  0.613583  0  4.126974  0  0  0.64717  0  4.12236  0  0  0.216263  0.590287  0  4.129211  0
O  O78  1  0.20140788  0.25420382  0.85425835  1  0  -0.652941  0  1.979563  0  0  -0.583337  0  2.216332  0  0  -0.613504  0  2.210028  0  0  -0.287826  -0.562659  0  2.219603  0
O  O79  1  0.79840275  0.74574887  0.14573300  1  0  -0.652894  0  1.97901  0  0  -0.583347  0  2.215615  0  0  -0.613551  0  2.209386  0  0  -0.28791  -0.562674  0  2.218889  0
O  O80  1  0.06966710  0.16256548  0.06209996  1  0  -0.724947  0  2.058098  0  0  -0.643679  0  2.299128  0  0  -0.675251  0  2.293349  0  0  -0.304181  -0.62117  0  2.301995  0
O  O81  1  0.93023626  0.83741842  0.93795422  1  0  -0.725118  0  2.057583  0  0  -0.643796  0  2.298371  0  0  -0.675321  0  2.292471  0  0  -0.304267  -0.621302  0  2.301278  0
O  O82  1  0.75500295  0.23619691  0.67403675  1  0  -0.67276  0  1.988957  0  0  -0.601799  0  2.225069  0  0  -0.631989  0  2.220616  0  0  -0.300339  -0.580805  0  2.227919  0
O  O83  1  0.24508733  0.76382311  0.32599894  1  0  -0.672025  0  1.98941  0  0  -0.600799  0  2.225313  0  0  -0.630999  0  2.220887  0  0  -0.299794  -0.579805  0  2.228148  0
O  O84  1  0.93999669  0.13613087  0.77843597  1  0  -0.695861  0  2.016918  0  0  -0.62008  0  2.255421  0  0  -0.652798  0  2.251125  0  0  -0.296184  -0.595808  0  2.257057  0
O  O85  1  0.06007532  0.86388312  0.22159189  1  0  -0.695305  0  2.016791  0  0  -0.619596  0  2.255512  0  0  -0.652346  0  2.251334  0  0  -0.296009  -0.595333  0  2.257135  0
O  O86  1  0.35049411  0.78113571  0.94617309  1  0  -0.687299  0  2.009248  0  0  -0.611748  0  2.250032  0  0  -0.643879  0  2.243526  0  0  -0.299523  -0.588488  0  2.253739  0
O  O87  1  0.64952753  0.21894708  0.05381183  1  0  -0.687129  0  2.009406  0  0  -0.611641  0  2.250167  0  0  -0.643772  0  2.243644  0  0  -0.299534  -0.588374  0  2.253883  0
O  O88  1  0.58663836  0.76236283  0.88664352  1  0  -0.676153  0  2.004827  0  0  -0.601194  0  2.243323  0  0  -0.631047  0  2.236303  0  0  -0.299888  -0.579333  0  2.247543  0
O  O89  1  0.41336025  0.23773717  0.11331195  1  0  -0.675332  0  2.004435  0  0  -0.600614  0  2.242924  0  0  -0.630461  0  2.235905  0  0  -0.299741  -0.578781  0  2.247207  0
O  O90  1  0.72961040  0.89531332  0.36843911  1  0  -0.611084  0  1.917747  0  0  -0.54393  0  2.134755  0  0  -0.571956  0  2.128176  0  0  -0.293142  -0.524932  0  2.138731  0
O  O91  1  0.27025576  0.10456249  0.63141480  1  0  -0.611431  0  1.917522  0  0  -0.543939  0  2.134398  0  0  -0.571961  0  2.127816  0  0  -0.29311  -0.524933  0  2.138374  0
O  O92  1  0.54975841  0.92722749  0.25466280  1  0  -0.710567  0  2.042717  0  0  -0.62864  0  2.284289  0  0  -0.661696  0  2.278867  0  0  -0.297023  -0.603693  0  2.286818  0
O  O93  1  0.44990145  0.07299122  0.74534207  1  0  -0.710236  0  2.043419  0  0  -0.628196  0  2.285174  0  0  -0.661239  0  2.279733  0  0  -0.296769  -0.603269  0  2.287739  0
O  O94  1  0.35124019  0.00746427  0.03988943  1  0  -1.020626  0  1.715236  0  0  -0.864535  0  1.952436  0  0  -0.910789  0  1.941766  0  0  -0.456061  -0.830587  0  1.957041  0
O  O95  1  0.64884023  0.99257497  0.96014075  1  0  -1.020749  0  1.715755  0  0  -0.864641  0  1.952944  0  0  -0.910903  0  1.942275  0  0  -0.455948  -0.83069  0  1.957552  0
