# generated using pymatgen
data_CdH22C22S2(N2O5)2
_symmetry_space_group_name_H-M   'P 1'
_cell_length_a   5.77977312
_cell_length_b   10.56776730
_cell_length_c   11.67520031
_cell_angle_alpha   67.92389991
_cell_angle_beta   78.98524785
_cell_angle_gamma   76.09533031
_symmetry_Int_Tables_number   1
_chemical_formula_structural   CdH22C22S2(N2O5)2
_chemical_formula_sum   'Cd1 H22 C22 S2 N4 O10'
_cell_volume   637.43128301
_cell_formula_units_Z   1
loop_
 _symmetry_equiv_pos_site_id
 _symmetry_equiv_pos_as_xyz
  1  'x, y, z'
loop_
 _atom_site_type_symbol
 _atom_site_label
 _atom_site_symmetry_multiplicity
 _atom_site_fract_x
 _atom_site_fract_y
 _atom_site_fract_z
 _atom_site_occupancy
 _atom_site_hle17_bader_spin_density
 _atom_site_hle17_ddec_charge
 _atom_site_hle17_ddec_spin_density
 _atom_site_hle17_ddec_sum_bond_order
 _atom_site_hle17_magmom
 _atom_site_hse06_10hf_bader_spin_density
 _atom_site_hse06_10hf_ddec_charge
 _atom_site_hse06_10hf_ddec_spin_density
 _atom_site_hse06_10hf_ddec_sum_bond_order
 _atom_site_hse06_10hf_magmom
 _atom_site_hse06_bader_spin_density
 _atom_site_hse06_ddec_charge
 _atom_site_hse06_ddec_spin_density
 _atom_site_hse06_ddec_sum_bond_order
 _atom_site_hse06_magmom
 _atom_site_pbe_bader_spin_density
 _atom_site_pbe_cm5_charge
 _atom_site_pbe_ddec_charge
 _atom_site_pbe_ddec_spin_density
 _atom_site_pbe_ddec_sum_bond_order
 _atom_site_pbe_magmom
Cd  Cd0  1  0.50000067  0.50000288  0.49999550  1  0  1.2184  0  1.566326  0  0  1.031784  0  2.001791  0  0  1.084517  0  1.950066  0  0  0.803683  0.994017  0  2.037553  0
H  H1  1  0.67373805  0.51682273  0.70657846  1  0  0.430442  0  0.870223  0  0  0.398024  0  0.93581  0  0  0.408913  0  0.919987  0  0  0.289728  0.39029  0  0.94704  0
H  H2  1  0.32625352  0.48317295  0.29341868  1  0  0.430426  0  0.870227  0  0  0.398068  0  0.935732  0  0  0.408957  0  0.919909  0  0  0.289742  0.390336  0  0.946958  0
H  H3  1  0.49401416  0.66383625  0.65524250  1  0  0.425186  0  0.871911  0  0  0.391874  0  0.939039  0  0  0.403583  0  0.922079  0  0  0.288921  0.383572  0  0.951064  0
H  H4  1  0.50598108  0.33615842  0.34476066  1  0  0.425266  0  0.871834  0  0  0.391942  0  0.938972  0  0  0.403652  0  0.922009  0  0  0.28893  0.383641  0  0.950992  0
H  H5  1  0.05790536  0.65029529  0.78626107  1  0  0.364465  0  0.914037  0  0  0.344611  0  0.975228  0  0  0.353692  0  0.967215  0  0  0.304024  0.338093  0  0.981034  0
H  H6  1  0.94207296  0.34970297  0.21374922  1  0  0.364382  0  0.914079  0  0  0.34454  0  0.975255  0  0  0.353623  0  0.967242  0  0  0.304005  0.338022  0  0.981065  0
H  H7  1  0.79598348  0.77741489  0.76384864  1  0  0.334419  0  0.878828  0  0  0.324798  0  0.927437  0  0  0.331657  0  0.922657  0  0  0.317528  0.319865  0  0.931025  0
H  H8  1  0.20399290  0.22257639  0.23617626  1  0  0.33438  0  0.878837  0  0  0.324826  0  0.927374  0  0  0.331688  0  0.922594  0  0  0.317502  0.319891  0  0.930962  0
H  H9  1  0.52370591  0.71609780  0.05475298  1  0  0.132527  0  0.934772  0  0  0.141383  0  0.994436  0  0  0.14555  0  0.991084  0  0  0.113438  0.138373  0  0.996902  0
H  H10  1  0.47631743  0.28390447  0.94524154  1  0  0.132538  0  0.934938  0  0  0.141349  0  0.994622  0  0  0.145514  0  0.991277  0  0  0.113452  0.138339  0  0.997087  0
H  H11  1  0.99119887  0.88013995  0.18682278  1  0  0.09701  0  0.968409  0  0  0.105671  0  1.032732  0  0  0.107734  0  1.03369  0  0  0.101725  0.104166  0  1.032178  0
H  H12  1  0.00882719  0.11986537  0.81317127  1  0  0.096954  0  0.968482  0  0  0.105638  0  1.03279  0  0  0.107692  0  1.033744  0  0  0.101719  0.104136  0  1.032237  0
H  H13  1  0.21546311  0.87811689  0.91952395  1  0  0.105907  0  0.935367  0  0  0.117911  0  0.990527  0  0  0.120909  0  0.989507  0  0  0.106383  0.115659  0  0.991514  0
H  H14  1  0.78458326  0.12189204  0.08046271  1  0  0.105845  0  0.935225  0  0  0.117811  0  0.990439  0  0  0.120819  0  0.989407  0  0  0.106383  0.115545  0  0.99144  0
H  H15  1  0.07052607  0.32917249  0.47873349  1  0  0.098439  0  0.970012  0  0  0.102753  0  1.038331  0  0  0.105938  0  1.035102  0  0  0.114865  0.10037  0  1.040805  0
H  H16  1  0.92948203  0.67081991  0.52127358  1  0  0.098422  0  0.969977  0  0  0.10274  0  1.038317  0  0  0.105926  0  1.035085  0  0  0.114857  0.100353  0  1.040785  0
H  H17  1  0.28992784  0.08330422  0.54479870  1  0  0.11869  0  0.946774  0  0  0.126135  0  1.011471  0  0  0.130041  0  1.009632  0  0  0.111656  0.123317  0  1.012993  0
H  H18  1  0.71005278  0.91668643  0.45519521  1  0  0.118709  0  0.946732  0  0  0.126128  0  1.011458  0  0  0.130036  0  1.009614  0  0  0.111649  0.123306  0  1.012985  0
H  H19  1  0.61386971  0.96114126  0.73227124  1  0  0.09949  0  0.983061  0  0  0.106344  0  1.051371  0  0  0.109338  0  1.050627  0  0  0.107748  0.104211  0  1.052029  0
H  H20  1  0.38609321  0.03886405  0.26770884  1  0  0.099441  0  0.983208  0  0  0.106284  0  1.051549  0  0  0.109283  0  1.0508  0  0  0.107724  0.104146  0  1.052218  0
H  H21  1  0.42659353  0.20724236  0.65779939  1  0  0.072723  0  1.006984  0  0  0.079585  0  1.074314  0  0  0.081084  0  1.07426  0  0  0.111394  0.078432  0  1.074504  0
H  H22  1  0.57339701  0.79276459  0.34218788  1  0  0.072758  0  1.006901  0  0  0.079578  0  1.074245  0  0  0.08107  0  1.074213  0  0  0.11142  0.078422  0  1.074431  0
C  C23  1  0.46360131  0.94201678  0.99517409  1  0  0.056134  0  3.776224  0  0  0.072471  0  4.006721  0  0  0.07201  0  4.03051  0  0  -0.006385  0.072789  0  3.990534  0
C  C24  1  0.53641708  0.05799081  0.00482158  1  0  0.055996  0  3.776544  0  0  0.07236  0  4.006978  0  0  0.071913  0  4.030759  0  0  -0.006568  0.072618  0  3.990838  0
C  C25  1  0.58120290  0.80539320  0.05822245  1  0  -0.099191  0  3.69168  0  0  -0.136283  0  3.944906  0  0  -0.134841  0  3.961922  0  0  -0.079337  -0.137201  0  3.933403  0
C  C26  1  0.41881923  0.19461333  0.94177667  1  0  -0.099203  0  3.691771  0  0  -0.136229  0  3.944973  0  0  -0.134793  0  3.961983  0  0  -0.079328  -0.137127  0  3.93348  0
C  C27  1  0.76527284  0.78593103  0.12631986  1  0  -0.122155  0  3.76685  0  0  -0.094887  0  4.016728  0  0  -0.101639  0  4.037999  0  0  -0.020675  -0.09053  0  4.002614  0
C  C28  1  0.23474727  0.21407656  0.87367822  1  0  -0.122145  0  3.766428  0  0  -0.094913  0  4.016364  0  0  -0.101665  0  4.037635  0  0  -0.020666  -0.090563  0  4.002259  0
C  C29  1  0.84070421  0.89956886  0.13519186  1  0  -0.073652  0  3.777463  0  0  -0.098533  0  4.030713  0  0  -0.099244  0  4.052238  0  0  -0.089043  -0.097962  0  4.016173  0
C  C30  1  0.15932011  0.10043647  0.86480063  1  0  -0.073486  0  3.777152  0  0  -0.098394  0  4.030441  0  0  -0.099089  0  4.05195  0  0  -0.088963  -0.097834  0  4.015925  0
C  C31  1  0.27338563  0.96701897  0.92379883  1  0  -0.103675  0  3.72685  0  0  -0.121628  0  3.977475  0  0  -0.123949  0  3.996955  0  0  -0.084766  -0.12005  0  3.964298  0
C  C32  1  0.72664768  0.03297892  0.07619461  1  0  -0.103487  0  3.726898  0  0  -0.12137  0  3.977404  0  0  -0.1237  0  3.996883  0  0  -0.084681  -0.119768  0  3.964234  0
C  C33  1  0.97622265  0.24472977  0.53606068  1  0  0.141021  0  3.664743  0  0  0.108554  0  3.923139  0  0  0.116087  0  3.939316  0  0  0.049718  0.103456  0  3.912343  0
C  C34  1  0.02378775  0.75526767  0.46394013  1  0  0.141001  0  3.665089  0  0  0.108473  0  3.923527  0  0  0.116008  0  3.939701  0  0  0.049647  0.103378  0  3.912727  0
C  C35  1  0.09862453  0.10739493  0.57333637  1  0  -0.12921  0  3.688981  0  0  -0.15229  0  3.941885  0  0  -0.158267  0  3.961966  0  0  -0.077101  -0.148232  0  3.928386  0
C  C36  1  0.90137353  0.89259557  0.42666885  1  0  -0.129273  0  3.68917  0  0  -0.152305  0  3.942029  0  0  -0.15829  0  3.962098  0  0  -0.077088  -0.14824  0  3.928534  0
C  C37  1  0.97432667  0.00045917  0.64682742  1  0  -0.014645  0  3.741642  0  0  0.005035  0  3.971987  0  0  0.003496  0  3.993258  0  0  0.005759  0.006054  0  3.957493  0
C  C38  1  0.02564023  0.99954241  0.35318187  1  0  -0.01458  0  3.741286  0  0  0.005122  0  3.971586  0  0  0.003614  0  3.992817  0  0  0.005842  0.006116  0  3.957122  0
C  C39  1  0.72740315  0.03664953  0.67750511  1  0  -0.131196  0  3.708559  0  0  -0.154405  0  3.960334  0  0  -0.160284  0  3.981663  0  0  -0.07921  -0.150585  0  3.946124  0
C  C40  1  0.27259365  0.96335326  0.32248821  1  0  -0.131105  0  3.708287  0  0  -0.154378  0  3.960088  0  0  -0.160267  0  3.981403  0  0  -0.079214  -0.150552  0  3.945882  0
C  C41  1  0.61815873  0.17558816  0.63616262  1  0  0.129368  0  3.71022  0  0  0.099866  0  3.958679  0  0  0.106253  0  3.97829  0  0  0.044594  0.095655  0  3.945398  0
C  C42  1  0.38182690  0.82441693  0.36383090  1  0  0.129258  0  3.710272  0  0  0.09988  0  3.958617  0  0  0.106263  0  3.978228  0  0  0.044587  0.095671  0  3.945332  0
C  C43  1  0.10835191  0.85268717  0.69021879  1  0  0.601004  0  3.86626  0  0  0.554439  0  4.15413  0  0  0.583039  0  4.154299  0  0  0.242115  0.53522  0  4.153112  0
C  C44  1  0.89165041  0.14731370  0.30979011  1  0  0.600885  0  3.866478  0  0  0.55433  0  4.15433  0  0  0.582921  0  4.154505  0  0  0.242099  0.535117  0  4.153307  0
S  S45  1  0.90381387  0.61423482  0.21055929  1  0  1.307222  0  5.631269  0  0  1.204425  0  6.15497  0  0  1.253059  0  6.130646  0  0  0.513335  1.170791  0  6.170695  0
S  S46  1  0.09619485  0.38576892  0.78944289  1  0  1.307163  0  5.63157  0  0  1.204316  0  6.155321  0  0  1.252951  0  6.130995  0  0  0.513288  1.170691  0  6.171036  0
N  N47  1  0.73925772  0.27846639  0.56803841  1  0  -0.328034  0  3.216808  0  0  -0.249845  0  3.479967  0  0  -0.269368  0  3.497815  0  0  -0.32269  -0.236363  0  3.467611  0
N  N48  1  0.26073315  0.72153864  0.43195808  1  0  -0.328006  0  3.216977  0  0  -0.249808  0  3.480076  0  0  -0.269332  0  3.497932  0  0  -0.322677  -0.236333  0  3.467722  0
N  N49  1  0.97755057  0.75437898  0.75446909  1  0  -0.665881  0  3.083715  0  0  -0.626681  0  3.304118  0  0  -0.650505  0  3.300481  0  0  -0.553747  -0.6102  0  3.306527  0
N  N50  1  0.02240380  0.24560948  0.24554766  1  0  -0.665492  0  3.084287  0  0  -0.626368  0  3.304586  0  0  -0.650186  0  3.300958  0  0  -0.553547  -0.609888  0  3.306985  0
O  O51  1  0.82011492  0.59275733  0.34403892  1  0  -0.711956  0  1.998632  0  0  -0.645682  0  2.273422  0  0  -0.670495  0  2.257525  0  0  -0.351467  -0.627898  0  2.283742  0
O  O52  1  0.17988498  0.40724656  0.65596229  1  0  -0.71201  0  1.998734  0  0  -0.645661  0  2.273428  0  0  -0.670475  0  2.257529  0  0  -0.351473  -0.627885  0  2.283751  0
O  O53  1  0.82150056  0.52295712  0.16499441  1  0  -0.645514  0  1.965744  0  0  -0.59376  0  2.196356  0  0  -0.613063  0  2.180673  0  0  -0.333797  -0.580038  0  2.20678  0
O  O54  1  0.17850441  0.47704769  0.83500516  1  0  -0.645527  0  1.965965  0  0  -0.593727  0  2.19657  0  0  -0.613023  0  2.180876  0  0  -0.333805  -0.580006  0  2.206986  0
O  O55  1  0.16360740  0.61309252  0.18475431  1  0  -0.657318  0  1.939173  0  0  -0.604377  0  2.176742  0  0  -0.625759  0  2.161718  0  0  -0.337587  -0.589148  0  2.186581  0
O  O56  1  0.83639956  0.38690411  0.81525481  1  0  -0.657308  0  1.939084  0  0  -0.604357  0  2.176669  0  0  -0.625739  0  2.161644  0  0  -0.337562  -0.589136  0  2.186503  0
O  O57  1  0.33253268  0.82676479  0.66690689  1  0  -0.59162  0  1.90537  0  0  -0.538808  0  2.118114  0  0  -0.561133  0  2.111033  0  0  -0.304942  -0.523382  0  2.122744  0
O  O58  1  0.66742749  0.17322786  0.33311815  1  0  -0.591808  0  1.904965  0  0  -0.538989  0  2.117639  0  0  -0.56133  0  2.110567  0  0  -0.305079  -0.523552  0  2.122267  0
O  O59  1  0.61101766  0.59028004  0.63043819  1  0  -0.849115  0  1.89563  0  0  -0.782593  0  2.093567  0  0  -0.806111  0  2.058958  0  0  -0.583996  -0.76569  0  2.117576  0
O  O60  1  0.38898957  0.40970920  0.36956493  1  0  -0.849279  0  1.89569  0  0  -0.782779  0  2.093577  0  0  -0.806283  0  2.058932  0  0  -0.584067  -0.765901  0  2.117643  0
