# generated using pymatgen
data_ZnH7C10NO4
_symmetry_space_group_name_H-M   'P 1'
_cell_length_a   9.66722251
_cell_length_b   9.66724418
_cell_length_c   14.23545888
_cell_angle_alpha   76.98607381
_cell_angle_beta   76.98608702
_cell_angle_gamma   64.17469336
_symmetry_Int_Tables_number   1
_chemical_formula_structural   ZnH7C10NO4
_chemical_formula_sum   'Zn4 H28 C40 N4 O16'
_cell_volume   1154.43734934
_cell_formula_units_Z   4
loop_
 _symmetry_equiv_pos_site_id
 _symmetry_equiv_pos_as_xyz
  1  'x, y, z'
loop_
 _atom_site_type_symbol
 _atom_site_label
 _atom_site_symmetry_multiplicity
 _atom_site_fract_x
 _atom_site_fract_y
 _atom_site_fract_z
 _atom_site_occupancy
 _atom_site_hle17_bader_spin_density
 _atom_site_hle17_ddec_charge
 _atom_site_hle17_ddec_spin_density
 _atom_site_hle17_ddec_sum_bond_order
 _atom_site_hle17_magmom
 _atom_site_hse06_10hf_bader_spin_density
 _atom_site_hse06_10hf_ddec_charge
 _atom_site_hse06_10hf_ddec_spin_density
 _atom_site_hse06_10hf_ddec_sum_bond_order
 _atom_site_hse06_10hf_magmom
 _atom_site_hse06_bader_spin_density
 _atom_site_hse06_ddec_charge
 _atom_site_hse06_ddec_spin_density
 _atom_site_hse06_ddec_sum_bond_order
 _atom_site_hse06_magmom
 _atom_site_pbe_bader_spin_density
 _atom_site_pbe_cm5_charge
 _atom_site_pbe_ddec_charge
 _atom_site_pbe_ddec_spin_density
 _atom_site_pbe_ddec_sum_bond_order
 _atom_site_pbe_magmom
Zn  Zn0  1  0.09402728  0.59135653  0.48541651  1  0  1.041877  0  1.873989  0  0  0.868714  0  2.349967  0  0  0.921677  0  2.28302  0  0  0.672198  0.831824  0  2.395854  0
Zn  Zn1  1  0.40863926  0.90597513  0.01458504  1  0  1.041881  0  1.873953  0  0  0.86873  0  2.349936  0  0  0.921694  0  2.28299  0  0  0.672179  0.831837  0  2.395825  0
Zn  Zn2  1  0.90597313  0.40864416  0.51458361  1  0  1.041957  0  1.873885  0  0  0.868781  0  2.34986  0  0  0.921744  0  2.282913  0  0  0.672199  0.831888  0  2.39575  0
Zn  Zn3  1  0.59135429  0.09402686  0.98541875  1  0  1.041969  0  1.873898  0  0  0.868807  0  2.349879  0  0  0.921769  0  2.282932  0  0  0.672199  0.831912  0  2.395768  0
H  H4  1  0.58594416  0.74174692  0.73036195  1  0  0.125333  0  0.922697  0  0  0.134661  0  0.977913  0  0  0.139389  0  0.974662  0  0  0.110493  0.131274  0  0.980388  0
H  H5  1  0.25825060  0.41405739  0.76963945  1  0  0.125302  0  0.922721  0  0  0.13463  0  0.977937  0  0  0.139357  0  0.974685  0  0  0.110485  0.131243  0  0.980413  0
H  H6  1  0.41405789  0.25824683  0.26963969  1  0  0.125326  0  0.922754  0  0  0.134654  0  0.97797  0  0  0.139381  0  0.974718  0  0  0.110475  0.131266  0  0.980446  0
H  H7  1  0.74175106  0.58594557  0.23036154  1  0  0.125288  0  0.922757  0  0  0.134641  0  0.977955  0  0  0.139368  0  0.974702  0  0  0.110465  0.131254  0  0.980431  0
H  H8  1  0.83837382  0.86595291  0.70799199  1  0  0.123985  0  0.931881  0  0  0.132188  0  0.990325  0  0  0.136731  0  0.987301  0  0  0.109327  0.128934  0  0.992643  0
H  H9  1  0.13406447  0.16161408  0.79200428  1  0  0.124016  0  0.931928  0  0  0.132234  0  0.990333  0  0  0.136778  0  0.987309  0  0  0.109349  0.128978  0  0.992653  0
H  H10  1  0.16161686  0.13405375  0.29201082  1  0  0.124008  0  0.931812  0  0  0.1322  0  0.990271  0  0  0.136744  0  0.987247  0  0  0.109328  0.128947  0  0.992587  0
H  H11  1  0.86595650  0.83837465  0.20798891  1  0  0.123962  0  0.931928  0  0  0.13216  0  0.990377  0  0  0.136704  0  0.987352  0  0  0.109324  0.128905  0  0.992696  0
H  H12  1  0.05540302  0.86395303  0.56587052  1  0  0.086254  0  0.947797  0  0  0.094791  0  1.010834  0  0  0.097629  0  1.008272  0  0  0.119475  0.092665  0  1.012784  0
H  H13  1  0.13604224  0.94459866  0.93412754  1  0  0.086232  0  0.947787  0  0  0.094761  0  1.010828  0  0  0.097598  0  1.008268  0  0  0.119453  0.092635  0  1.01278  0
H  H14  1  0.94459858  0.13604188  0.43413383  1  0  0.086233  0  0.947808  0  0  0.094775  0  1.010854  0  0  0.097614  0  1.008291  0  0  0.119475  0.092649  0  1.012804  0
H  H15  1  0.86395451  0.05540325  0.06586874  1  0  0.086259  0  0.947786  0  0  0.094818  0  1.010805  0  0  0.097641  0  1.00826  0  0  0.119466  0.092691  0  1.012757  0
H  H16  1  0.20849546  0.01367803  0.56670846  1  0  0.119523  0  0.949326  0  0  0.129917  0  1.006847  0  0  0.133267  0  1.005742  0  0  0.111897  0.12748  0  1.007833  0
H  H17  1  0.98632050  0.79150248  0.93328921  1  0  0.119505  0  0.949393  0  0  0.129902  0  1.006909  0  0  0.133253  0  1.005803  0  0  0.111891  0.127466  0  1.007894  0
H  H18  1  0.79150416  0.98631922  0.43329512  1  0  0.11954  0  0.949328  0  0  0.129933  0  1.006847  0  0  0.133284  0  1.005743  0  0  0.111929  0.127497  0  1.007833  0
H  H19  1  0.01367715  0.20849711  0.06670729  1  0  0.119515  0  0.949343  0  0  0.129912  0  1.006858  0  0  0.133263  0  1.005753  0  0  0.111917  0.127475  0  1.007845  0
H  H20  1  0.58737470  0.69306800  0.39005803  1  0  0.115313  0  0.977038  0  0  0.122445  0  1.042498  0  0  0.125295  0  1.042655  0  0  0.107136  0.120353  0  1.042581  0
H  H21  1  0.30693015  0.41262929  0.10994161  1  0  0.115309  0  0.977089  0  0  0.122457  0  1.042526  0  0  0.125309  0  1.042679  0  0  0.107155  0.120365  0  1.04261  0
H  H22  1  0.41262420  0.30693388  0.60994355  1  0  0.115323  0  0.977048  0  0  0.122456  0  1.042506  0  0  0.125306  0  1.04266  0  0  0.107129  0.120363  0  1.042591  0
H  H23  1  0.69306678  0.58737492  0.89005500  1  0  0.115301  0  0.977055  0  0  0.122431  0  1.04252  0  0  0.125282  0  1.042675  0  0  0.107125  0.120339  0  1.042605  0
H  H24  1  0.41234458  0.56244273  0.39284553  1  0  0.0927  0  0.925778  0  0  0.102406  0  0.983797  0  0  0.105524  0  0.98091  0  0  0.122952  0.100095  0  0.985938  0
H  H25  1  0.43755443  0.58766104  0.10715330  1  0  0.0927  0  0.925809  0  0  0.102418  0  0.98382  0  0  0.105536  0  0.980933  0  0  0.122953  0.100106  0  0.98596  0
H  H26  1  0.58765646  0.43755910  0.60715503  1  0  0.092677  0  0.925789  0  0  0.102411  0  0.983787  0  0  0.10553  0  0.980899  0  0  0.122932  0.1001  0  0.985929  0
H  H27  1  0.56244187  0.41234203  0.89284358  1  0  0.092634  0  0.925795  0  0  0.102355  0  0.983802  0  0  0.105473  0  0.980915  0  0  0.122917  0.100043  0  0.985944  0
H  H28  1  0.62896810  0.89465243  0.42999035  1  0  0.098372  0  0.943852  0  0  0.112153  0  1.000478  0  0  0.114476  0  1.000008  0  0  0.108607  0.110486  0  1.000872  0
H  H29  1  0.10534762  0.37103276  0.07001154  1  0  0.098384  0  0.943809  0  0  0.112176  0  1.000431  0  0  0.114489  0  0.999972  0  0  0.108622  0.110508  0  1.000826  0
H  H30  1  0.37103080  0.10534944  0.57001404  1  0  0.098353  0  0.943854  0  0  0.112158  0  1.000472  0  0  0.114472  0  1.00001  0  0  0.108597  0.11049  0  1.000867  0
H  H31  1  0.89464913  0.62896915  0.92998474  1  0  0.098367  0  0.943802  0  0  0.112167  0  1.000426  0  0  0.114482  0  0.999965  0  0  0.108593  0.110499  0  1.000822  0
C  C32  1  0.78312675  0.69004222  0.61069412  1  0  0.689146  0  3.904975  0  0  0.642676  0  4.194624  0  0  0.678224  0  4.186896  0  0  0.207296  0.618609  0  4.198995  0
C  C33  1  0.30995777  0.21687410  0.88930708  1  0  0.68914  0  3.904993  0  0  0.642695  0  4.194591  0  0  0.678242  0  4.186865  0  0  0.20733  0.61863  0  4.198965  0
C  C34  1  0.21687519  0.30995728  0.38930877  1  0  0.689189  0  3.905019  0  0  0.642707  0  4.194672  0  0  0.678254  0  4.186947  0  0  0.207352  0.618641  0  4.199043  0
C  C35  1  0.69004157  0.78312661  0.11069251  1  0  0.689234  0  3.9049  0  0  0.642797  0  4.194506  0  0  0.678344  0  4.186777  0  0  0.207358  0.61873  0  4.19888  0
C  C36  1  0.68899232  0.76429359  0.69792108  1  0  -0.158806  0  3.657507  0  0  -0.178694  0  3.914144  0  0  -0.184003  0  3.928305  0  0  -0.082498  -0.175236  0  3.904661  0
C  C37  1  0.23571053  0.31100543  0.80207852  1  0  -0.158774  0  3.657599  0  0  -0.178683  0  3.914225  0  0  -0.183989  0  3.928385  0  0  -0.082525  -0.175226  0  3.904745  0
C  C38  1  0.31100641  0.23570599  0.30208229  1  0  -0.158911  0  3.657655  0  0  -0.178792  0  3.914285  0  0  -0.184097  0  3.928443  0  0  -0.082555  -0.175335  0  3.904804  0
C  C39  1  0.76429310  0.68899519  0.19791972  1  0  -0.158771  0  3.657387  0  0  -0.178709  0  3.914041  0  0  -0.184015  0  3.928199  0  0  -0.082476  -0.17525  0  3.904558  0
C  C40  1  0.73547324  0.84353144  0.74094876  1  0  -0.159875  0  3.649223  0  0  -0.179354  0  3.904155  0  0  -0.185046  0  3.91787  0  0  -0.083336  -0.175648  0  3.89497  0
C  C41  1  0.15647898  0.26451964  0.75904850  1  0  -0.159963  0  3.649352  0  0  -0.179427  0  3.904247  0  0  -0.185119  0  3.917957  0  0  -0.08336  -0.175723  0  3.895066  0
C  C42  1  0.26452048  0.15647284  0.25905395  1  0  -0.159846  0  3.649096  0  0  -0.179301  0  3.904036  0  0  -0.184993  0  3.917745  0  0  -0.083268  -0.175594  0  3.894851  0
C  C43  1  0.84353743  0.73547264  0.24094414  1  0  -0.159833  0  3.649058  0  0  -0.179294  0  3.903984  0  0  -0.184987  0  3.917696  0  0  -0.083307  -0.175589  0  3.894798  0
C  C44  1  0.65352509  0.90320226  0.83460134  1  0  0.682083  0  3.90681  0  0  0.637439  0  4.19481  0  0  0.672795  0  4.186576  0  0  0.203934  0.613543  0  4.199513  0
C  C45  1  0.09680672  0.34646788  0.66539749  1  0  0.682131  0  3.906671  0  0  0.63748  0  4.194668  0  0  0.672837  0  4.186433  0  0  0.20396  0.613586  0  4.199369  0
C  C46  1  0.34646953  0.09679971  0.16540229  1  0  0.682296  0  3.906958  0  0  0.637611  0  4.194991  0  0  0.67297  0  4.18675  0  0  0.204012  0.613713  0  4.199698  0
C  C47  1  0.90320147  0.65352918  0.33459989  1  0  0.682264  0  3.906839  0  0  0.637623  0  4.194816  0  0  0.672981  0  4.186576  0  0  0.204003  0.613726  0  4.19952  0
C  C48  1  0.17389522  0.83153849  0.52777524  1  0  0.119991  0  3.709295  0  0  0.090743  0  3.955417  0  0  0.096999  0  3.974857  0  0  0.046868  0.086785  0  3.942158  0
C  C49  1  0.16846026  0.82610614  0.97222378  1  0  0.120031  0  3.709254  0  0  0.090809  0  3.955393  0  0  0.097068  0  3.974833  0  0  0.046901  0.08685  0  3.942135  0
C  C50  1  0.82610611  0.16845988  0.47222862  1  0  0.119999  0  3.709299  0  0  0.090702  0  3.955454  0  0  0.096959  0  3.974894  0  0  0.046844  0.086743  0  3.942192  0
C  C51  1  0.83153909  0.17389457  0.02777370  1  0  0.119924  0  3.70922  0  0  0.090662  0  3.955367  0  0  0.096933  0  3.974811  0  0  0.046856  0.086702  0  3.942108  0
C  C52  1  0.26124908  0.91284641  0.52855611  1  0  -0.151191  0  3.685447  0  0  -0.168594  0  3.928577  0  0  -0.176591  0  3.950193  0  0  -0.075965  -0.163466  0  3.914071  0
C  C53  1  0.08715269  0.73875329  0.97144059  1  0  -0.151211  0  3.685486  0  0  -0.168633  0  3.928608  0  0  -0.17663  0  3.950226  0  0  -0.075987  -0.163502  0  3.914104  0
C  C54  1  0.73875224  0.08715196  0.47144704  1  0  -0.151164  0  3.685455  0  0  -0.168577  0  3.928572  0  0  -0.176576  0  3.950196  0  0  -0.075995  -0.163449  0  3.914066  0
C  C55  1  0.91284683  0.26124971  0.02855440  1  0  -0.151103  0  3.685411  0  0  -0.168532  0  3.928517  0  0  -0.176528  0  3.950135  0  0  -0.075988  -0.163405  0  3.914014  0
C  C56  1  0.41419680  0.86516498  0.47846768  1  0  0.141425  0  3.787727  0  0  0.154273  0  4.021723  0  0  0.159435  0  4.045388  0  0  0.013824  0.151006  0  4.005559  0
C  C57  1  0.13483310  0.58580789  0.02153038  1  0  0.141477  0  3.787657  0  0  0.154358  0  4.021604  0  0  0.159519  0  4.045268  0  0  0.013841  0.151083  0  4.005455  0
C  C58  1  0.58580560  0.13483337  0.52153602  1  0  0.141392  0  3.787798  0  0  0.154315  0  4.021721  0  0  0.159472  0  4.045393  0  0  0.013849  0.151047  0  4.005558  0
C  C59  1  0.86516641  0.41419512  0.97846532  1  0  0.141389  0  3.787809  0  0  0.154327  0  4.021698  0  0  0.159484  0  4.045374  0  0  0.013842  0.151059  0  4.005537  0
C  C60  1  0.46908497  0.73672369  0.42862502  1  0  -0.151516  0  3.670758  0  0  -0.1684  0  3.9152  0  0  -0.177063  0  3.937437  0  0  -0.075517  -0.162792  0  3.900302  0
C  C61  1  0.26327339  0.53091613  0.07137378  1  0  -0.151558  0  3.670796  0  0  -0.168451  0  3.915216  0  0  -0.177115  0  3.937451  0  0  -0.075562  -0.162842  0  3.90032  0
C  C62  1  0.53091545  0.26327700  0.57137651  1  0  -0.151546  0  3.670796  0  0  -0.168449  0  3.915241  0  0  -0.17711  0  3.937476  0  0  -0.075515  -0.162841  0  3.900344  0
C  C63  1  0.73672319  0.46908349  0.92862289  1  0  -0.151513  0  3.670737  0  0  -0.168426  0  3.915155  0  0  -0.177084  0  3.937389  0  0  -0.075496  -0.162818  0  3.900258  0
C  C64  1  0.37372208  0.66236063  0.43055606  1  0  0.133398  0  3.692942  0  0  0.102694  0  3.939658  0  0  0.109889  0  3.958154  0  0  0.052995  0.098099  0  3.927045  0
C  C65  1  0.33763451  0.62628040  0.06944352  1  0  0.133502  0  3.69298  0  0  0.102781  0  3.93972  0  0  0.109975  0  3.95822  0  0  0.053056  0.098187  0  3.927104  0
C  C66  1  0.62627726  0.33764008  0.56944563  1  0  0.133444  0  3.692976  0  0  0.102683  0  3.939702  0  0  0.109881  0  3.958196  0  0  0.052993  0.098086  0  3.927087  0
C  C67  1  0.66236100  0.37371924  0.93055400  1  0  0.133511  0  3.69289  0  0  0.102805  0  3.939611  0  0  0.110001  0  3.958107  0  0  0.05302  0.098207  0  3.926996  0
C  C68  1  0.51650248  0.94100860  0.47556193  1  0  -0.084217  0  3.694431  0  0  -0.104157  0  3.944664  0  0  -0.107545  0  3.965869  0  0  -0.071461  -0.101756  0  3.930083  0
C  C69  1  0.05899281  0.48349830  0.02443762  1  0  -0.084201  0  3.694331  0  0  -0.104171  0  3.944555  0  0  -0.107551  0  3.965763  0  0  -0.071462  -0.101768  0  3.92998  0
C  C70  1  0.48349687  0.05899211  0.52444117  1  0  -0.084144  0  3.694455  0  0  -0.104168  0  3.944695  0  0  -0.107548  0  3.965907  0  0  -0.071442  -0.101768  0  3.930116  0
C  C71  1  0.94101279  0.51649997  0.97555857  1  0  -0.084164  0  3.694414  0  0  -0.104181  0  3.944635  0  0  -0.10756  0  3.965845  0  0  -0.071411  -0.101779  0  3.930056  0
N  N72  1  0.22833254  0.70819591  0.47970451  1  0  -0.312302  0  3.27497  0  0  -0.227824  0  3.543947  0  0  -0.247632  0  3.558817  0  0  -0.328249  -0.214495  0  3.533674  0
N  N73  1  0.29180017  0.77166830  0.02029513  1  0  -0.312408  0  3.275004  0  0  -0.227965  0  3.54404  0  0  -0.247778  0  3.558915  0  0  -0.328306  -0.214635  0  3.533765  0
N  N74  1  0.77166726  0.29180364  0.52029869  1  0  -0.312379  0  3.274969  0  0  -0.227821  0  3.543887  0  0  -0.247635  0  3.558763  0  0  -0.328241  -0.214482  0  3.533606  0
N  N75  1  0.70819580  0.22833017  0.97970321  1  0  -0.312401  0  3.274955  0  0  -0.227951  0  3.543984  0  0  -0.247764  0  3.558853  0  0  -0.328279  -0.214613  0  3.533703  0
O  O76  1  0.89153981  0.73070060  0.56419134  1  0  -0.646029  0  2.084682  0  0  -0.582863  0  2.35226  0  0  -0.612268  0  2.340001  0  0  -0.315719  -0.562414  0  2.359989  0
O  O77  1  0.26930088  0.10846041  0.93580833  1  0  -0.646059  0  2.084709  0  0  -0.582925  0  2.35232  0  0  -0.612329  0  2.340056  0  0  -0.315758  -0.56246  0  2.360011  0
O  O78  1  0.10846016  0.26930125  0.43581008  1  0  -0.646074  0  2.084678  0  0  -0.582918  0  2.352294  0  0  -0.612322  0  2.340031  0  0  -0.315774  -0.562468  0  2.360022  0
O  O79  1  0.73070150  0.89153793  0.06418904  1  0  -0.646114  0  2.084683  0  0  -0.582951  0  2.352249  0  0  -0.612356  0  2.339986  0  0  -0.315787  -0.562497  0  2.359967  0
O  O80  1  0.75008087  0.58560738  0.59200079  1  0  -0.636131  0  2.033938  0  0  -0.573256  0  2.293043  0  0  -0.602294  0  2.279178  0  0  -0.31691  -0.553009  0  2.301804  0
O  O81  1  0.41438800  0.24992345  0.90800341  1  0  -0.636075  0  2.033889  0  0  -0.573195  0  2.292955  0  0  -0.602233  0  2.279093  0  0  -0.316888  -0.55295  0  2.301713  0
O  O82  1  0.24992411  0.41438976  0.40800129  1  0  -0.636054  0  2.033865  0  0  -0.57317  0  2.292958  0  0  -0.602209  0  2.279097  0  0  -0.316886  -0.552923  0  2.301715  0
O  O83  1  0.58560313  0.75008205  0.09200373  1  0  -0.636152  0  2.033914  0  0  -0.573295  0  2.293001  0  0  -0.602334  0  2.279136  0  0  -0.316917  -0.55305  0  2.301762  0
O  O84  1  0.69917502  0.99232419  0.86074713  1  0  -0.622295  0  2.013748  0  0  -0.560424  0  2.262706  0  0  -0.588415  0  2.247995  0  0  -0.319246  -0.540953  0  2.272095  0
O  O85  1  0.00768065  0.30081936  0.63925282  1  0  -0.622282  0  2.013658  0  0  -0.560423  0  2.262628  0  0  -0.588416  0  2.247917  0  0  -0.31925  -0.540952  0  2.272016  0
O  O86  1  0.30081431  0.00768595  0.13925185  1  0  -0.622318  0  2.013839  0  0  -0.560442  0  2.262822  0  0  -0.588434  0  2.248111  0  0  -0.319266  -0.540971  0  2.27221  0
O  O87  1  0.99232782  0.69917425  0.36074575  1  0  -0.622289  0  2.013784  0  0  -0.560427  0  2.262756  0  0  -0.58842  0  2.248043  0  0  -0.319229  -0.540955  0  2.272144  0
O  O88  1  0.54736905  0.85899728  0.88152545  1  0  -0.647066  0  2.071962  0  0  -0.581538  0  2.329769  0  0  -0.610477  0  2.315965  0  0  -0.318086  -0.561393  0  2.338451  0
O  O89  1  0.14100055  0.45263163  0.61847601  1  0  -0.647063  0  2.071891  0  0  -0.581541  0  2.329704  0  0  -0.610481  0  2.315903  0  0  -0.318088  -0.56139  0  2.338375  0
O  O90  1  0.45263041  0.14099767  0.11847922  1  0  -0.647275  0  2.072173  0  0  -0.58173  0  2.330017  0  0  -0.610669  0  2.316203  0  0  -0.318176  -0.561581  0  2.338699  0
O  O91  1  0.85900201  0.54736901  0.38152239  1  0  -0.647289  0  2.072131  0  0  -0.581767  0  2.329962  0  0  -0.610705  0  2.316148  0  0  -0.318191  -0.561623  0  2.338655  0
