# generated using pymatgen
data_Zn4H39C51S3N3O16
_symmetry_space_group_name_H-M   'P 1'
_cell_length_a   17.28233457
_cell_length_b   17.28234222
_cell_length_c   17.27941361
_cell_angle_alpha   89.12834814
_cell_angle_beta   89.12816592
_cell_angle_gamma   88.76907837
_symmetry_Int_Tables_number   1
_chemical_formula_structural   Zn4H39C51S3N3O16
_chemical_formula_sum   'Zn8 H78 C102 S6 N6 O32'
_cell_volume   5158.64144246
_cell_formula_units_Z   2
loop_
 _symmetry_equiv_pos_site_id
 _symmetry_equiv_pos_as_xyz
  1  'x, y, z'
loop_
 _atom_site_type_symbol
 _atom_site_label
 _atom_site_symmetry_multiplicity
 _atom_site_fract_x
 _atom_site_fract_y
 _atom_site_fract_z
 _atom_site_occupancy
 _atom_site_pbe_bader_charge
 _atom_site_pbe_bader_spin_density
 _atom_site_pbe_cm5_charge
 _atom_site_pbe_ddec_charge
 _atom_site_pbe_ddec_spin_density
 _atom_site_pbe_ddec_sum_bond_order
 _atom_site_pbe_magmom
Zn  Zn0  1  0.42322955  0.42322847  0.69083363  1  1.31562  0  0.669103  0.958345  0  2.377281  0
Zn  Zn1  1  0.57677102  0.57677048  0.30916661  1  1.315602  0  0.669169  0.958391  0  2.377241  0
Zn  Zn2  1  0.42309991  0.29137752  0.82397144  1  1.310319  0  0.669175  0.959007  0  2.402353  0
Zn  Zn3  1  0.70862401  0.57689842  0.17602743  1  1.310325  0  0.66914  0.958999  0  2.402442  0
Zn  Zn4  1  0.57690125  0.70862199  0.17602878  1  1.31036  0  0.669207  0.959056  0  2.402231  0
Zn  Zn5  1  0.29137656  0.42310111  0.82397396  1  1.310367  0  0.669206  0.959007  0  2.402151  0
Zn  Zn6  1  0.29336094  0.29336119  0.69443137  1  1.320326  0  0.676036  0.964982  0  2.387397  0
Zn  Zn7  1  0.70663963  0.70663834  0.30556886  1  1.320299  0  0.676048  0.964996  0  2.387431  0
H  H8  1  0.43828787  0.43828768  0.29882174  1  0.113897  0  0.104179  0.113302  0  1.011527  0
H  H9  1  0.56171270  0.56171243  0.70117906  1  0.113897  0  0.104177  0.113297  0  1.01153  0
H  H10  1  0.44647207  0.44647169  0.44273271  1  0.116442  0  0.109127  0.120218  0  0.992723  0
H  H11  1  0.55352792  0.55352670  0.55726812  1  0.116409  0  0.109147  0.120255  0  0.992837  0
H  H12  1  0.26381213  0.05356213  0.68608135  1  0.12167  0  0.11965  0.145068  0  0.972927  0
H  H13  1  0.94643878  0.73618796  0.31391737  1  0.121684  0  0.119656  0.145071  0  0.972868  0
H  H14  1  0.73618728  0.94643685  0.31392122  1  0.121654  0  0.11964  0.145042  0  0.972886  0
H  H15  1  0.05356064  0.26381333  0.68607879  1  0.12169  0  0.119658  0.145086  0  0.972843  0
H  H16  1  0.46091811  0.90979703  0.84256919  1  0.060287  0  0.104158  0.107623  0  0.99088  0
H  H17  1  0.09020363  0.53908003  0.15742945  1  0.060231  0  0.104178  0.107623  0  0.990863  0
H  H18  1  0.53908188  0.09020251  0.15743104  1  0.0603  0  0.104169  0.107666  0  0.990864  0
H  H19  1  0.90979694  0.46091892  0.84257021  1  0.060269  0  0.104167  0.107623  0  0.99084  0
H  H20  1  0.46047042  0.05469138  0.83634357  1  0.11487  0  0.107693  0.114672  0  0.995141  0
H  H21  1  0.94530914  0.53952870  0.16365544  1  0.114826  0  0.107718  0.114717  0  0.995088  0
H  H22  1  0.53952900  0.94530876  0.16365840  1  0.114841  0  0.107711  0.114712  0  0.995083  0
H  H23  1  0.05469143  0.46047083  0.83634247  1  0.114833  0  0.107703  0.11471  0  0.99511  0
H  H24  1  0.27234167  0.27234134  0.46647495  1  0.171247  0  0.092306  0.128036  0  1.086394  0
H  H25  1  0.72765717  0.72765881  0.53352414  1  0.171259  0  0.092308  0.12805  0  1.086355  0
H  H26  1  0.25740456  0.43503185  0.06208110  1  0.102182  0  0.107775  0.11266  0  0.994372  0
H  H27  1  0.56496625  0.74259534  0.93791944  1  0.102144  0  0.107734  0.112561  0  0.994401  0
H  H28  1  0.74259659  0.56496708  0.93791797  1  0.102171  0  0.10776  0.112656  0  0.994339  0
H  H29  1  0.43503548  0.25740416  0.06208077  1  0.102137  0  0.107745  0.112647  0  0.994354  0
H  H30  1  0.25881347  0.43696992  0.20669411  1  0.049301  0  0.098539  0.100445  0  1.016298  0
H  H31  1  0.56303050  0.74118576  0.79330582  1  0.049288  0  0.098526  0.100396  0  1.016307  0
H  H32  1  0.74118595  0.56303079  0.79330553  1  0.04928  0  0.098549  0.100435  0  1.016319  0
H  H33  1  0.43697066  0.25881433  0.20669439  1  0.049279  0  0.098534  0.100386  0  1.016238  0
H  H34  1  0.27989533  0.80495871  0.86268628  1  0.107379  0  0.101293  0.110679  0  1.008631  0
H  H35  1  0.19504199  0.72010548  0.13731244  1  0.107361  0  0.101299  0.110687  0  1.008653  0
H  H36  1  0.72010466  0.19504141  0.13731221  1  0.107341  0  0.10131  0.110718  0  1.008646  0
H  H37  1  0.80495859  0.27989521  0.86268893  1  0.107354  0  0.10129  0.110682  0  1.008623  0
H  H38  1  0.28026454  0.66008264  0.86062276  1  0.070186  0  0.10904  0.114558  0  0.990387  0
H  H39  1  0.33991945  0.71973695  0.13937628  1  0.07018  0  0.109067  0.114588  0  0.990315  0
H  H40  1  0.71973546  0.33991748  0.13937515  1  0.070221  0  0.109059  0.114572  0  0.990297  0
H  H41  1  0.66008056  0.28026549  0.86062391  1  0.070224  0  0.109054  0.11457  0  0.990284  0
H  H42  1  0.44559692  0.66190328  0.67236610  1  0.103946  0  0.104396  0.108378  0  1.022007  0
H  H43  1  0.33809690  0.55440300  0.32763389  1  0.103957  0  0.104393  0.110065  0  1.019993  0
H  H44  1  0.55440307  0.33809568  0.32763299  1  0.103957  0  0.104369  0.110046  0  1.020015  0
H  H45  1  0.66190425  0.44559767  0.67236631  1  0.103966  0  0.104397  0.110087  0  1.019948  0
H  H46  1  0.44639475  0.80637342  0.67480807  1  0.054734  0  0.105101  0.108982  0  0.987644  0
H  H47  1  0.19362776  0.55360544  0.32518981  1  0.054799  0  0.105086  0.108921  0  0.987577  0
H  H48  1  0.55360582  0.19362611  0.32519042  1  0.054764  0  0.105096  0.108902  0  0.987621  0
H  H49  1  0.80637455  0.44639463  0.67480980  1  0.05476  0  0.105093  0.108902  0  0.987594  0
H  H50  1  0.06063940  0.81151829  0.74030167  1  0.087373  0  0.099601  0.12083  0  1.044299  0
H  H51  1  0.18848376  0.93936032  0.25969972  1  0.08743  0  0.099583  0.120854  0  1.04433  0
H  H52  1  0.93936002  0.18848243  0.25969914  1  0.087411  0  0.099583  0.120853  0  1.044294  0
H  H53  1  0.81151682  0.06064037  0.74030165  1  0.087421  0  0.099592  0.120843  0  1.044294  0
H  H54  1  0.05859906  0.76198457  0.64930312  1  0.063147  0  0.105464  0.116487  0  0.981407  0
H  H55  1  0.23801564  0.94140089  0.35069880  1  0.063217  0  0.105457  0.116486  0  0.981389  0
H  H56  1  0.94139978  0.23801558  0.35069770  1  0.063147  0  0.105456  0.116492  0  0.981412  0
H  H57  1  0.76198377  0.05859866  0.64930318  1  0.063144  0  0.105456  0.116483  0  0.981424  0
H  H58  1  0.10728481  0.71878589  0.73036160  1  0.05292  0  0.104065  0.115415  0  0.973507  0
H  H59  1  0.28121535  0.89271607  0.26964015  1  0.052915  0  0.104075  0.115442  0  0.973498  0
H  H60  1  0.89271460  0.28121425  0.26963922  1  0.052859  0  0.104085  0.115473  0  0.973459  0
H  H61  1  0.71878407  0.10728465  0.73036124  1  0.052883  0  0.104078  0.115443  0  0.973483  0
H  H62  1  0.17000450  0.76888481  0.56337582  1  0.030714  0  0.10506  0.113661  0  0.989732  0
H  H63  1  0.23111572  0.82999418  0.43662479  1  0.030601  0  0.105052  0.113655  0  0.989737  0
H  H64  1  0.82999492  0.23111474  0.43662500  1  0.030595  0  0.105057  0.113673  0  0.989719  0
H  H65  1  0.76888427  0.17000421  0.56337546  1  0.030701  0  0.105044  0.113672  0  0.98973  0
H  H66  1  0.25856400  0.80625155  0.59832779  1  0.095443  0  0.112429  0.129453  0  1.01425  0
H  H67  1  0.19374954  0.74143567  0.40167272  1  0.095439  0  0.112458  0.129454  0  1.014246  0
H  H68  1  0.74143542  0.19374859  0.40167361  1  0.095415  0  0.112481  0.129549  0  1.014182  0
H  H69  1  0.80624988  0.25856389  0.59832752  1  0.095459  0  0.112457  0.129492  0  1.014236  0
H  H70  1  0.22490707  0.71511630  0.63345168  1  0.047829  0  0.104198  0.115684  0  0.980187  0
H  H71  1  0.28488444  0.77509205  0.36654817  1  0.048011  0  0.104166  0.115646  0  0.980195  0
H  H72  1  0.77509235  0.28488442  0.36654913  1  0.047987  0  0.104178  0.115674  0  0.980185  0
H  H73  1  0.71511439  0.22490695  0.63345151  1  0.047959  0  0.104225  0.115747  0  0.980121  0
H  H74  1  0.13669220  0.06363079  0.31834857  1  0.046877  0  0.098752  0.115365  0  1.010354  0
H  H75  1  0.93636805  0.86330880  0.68164865  1  0.046831  0  0.098731  0.11532  0  1.010389  0
H  H76  1  0.86330780  0.93636875  0.68165051  1  0.046851  0  0.098748  0.115339  0  1.010369  0
H  H77  1  0.06363194  0.13669133  0.31835100  1  0.046828  0  0.098741  0.115347  0  1.010382  0
H  H78  1  0.09313906  0.09313986  0.22876286  1  0.025441  0  0.110309  0.125316  0  0.987803  0
H  H79  1  0.90686036  0.90686086  0.77123621  1  0.025473  0  0.110328  0.125326  0  0.987797  0
H  H80  1  0.18244312  0.25580250  0.18184757  1  0.070288  0  0.104255  0.117829  0  0.992299  0
H  H81  1  0.74419688  0.81755516  0.81815281  1  0.070291  0  0.104264  0.117852  0  0.992297  0
H  H82  1  0.81755687  0.74419705  0.81815151  1  0.070273  0  0.104241  0.117824  0  0.9923  0
H  H83  1  0.25580312  0.18244439  0.18184684  1  0.070285  0  0.104271  0.117846  0  0.992295  0
H  H84  1  0.16012770  0.16012683  0.15284936  1  0.041108  0  0.114257  0.127242  0  0.982408  0
H  H85  1  0.83987229  0.83987272  0.84714914  1  0.041038  0  0.11428  0.127291  0  0.982379  0
C  C86  1  0.34761894  0.34762393  0.96743868  1  1.518514  0  0.227543  0.606947  0  4.172249  0
C  C87  1  0.65237818  0.65237916  0.03256155  1  1.518349  0  0.227612  0.607101  0  4.17213  0
C  C88  1  0.34588491  0.34588428  0.05372221  1  -0.035373  0  -0.022297  -0.05196  0  3.994845  0
C  C89  1  0.65411566  0.65411468  0.94627918  1  -0.035367  0  -0.022298  -0.052026  0  3.994854  0
C  C90  1  0.35128867  0.35128794  0.30158898  1  0.028856  0  -0.005618  -0.021615  0  3.970556  0
C  C91  1  0.64871074  0.64871104  0.69841069  1  0.028841  0  -0.005563  -0.021587  0  3.970678  0
C  C92  1  0.34767869  0.34767768  0.21589119  1  -0.028517  0  0.003315  0.100835  0  3.993286  0
C  C93  1  0.65232189  0.65232243  0.78410903  1  -0.028494  0  0.0033  0.100849  0  3.993316  0
C  C94  1  0.36089229  0.56653487  0.76347200  1  1.518978  0  0.226332  0.603992  0  4.172305  0
C  C95  1  0.43346640  0.63910691  0.23652970  1  1.518954  0  0.226299  0.60394  0  4.172343  0
C  C96  1  0.63910366  0.43346478  0.23653292  1  1.519015  0  0.226371  0.604029  0  4.172342  0
C  C97  1  0.56653533  0.36089374  0.76346876  1  1.519036  0  0.226362  0.604018  0  4.172329  0
C  C98  1  0.40208610  0.40208554  0.33605897  1  -0.065547  0  -0.087554  -0.119976  0  4.001524  0
C  C99  1  0.59791448  0.59791457  0.66394241  1  -0.065501  0  -0.087602  -0.119931  0  4.001482  0
C  C100  1  0.40682376  0.40682249  0.41630264  1  -0.066756  0  -0.089494  -0.107018  0  3.989354  0
C  C101  1  0.59317564  0.59317417  0.58369534  1  -0.066758  0  -0.089489  -0.107008  0  3.989296  0
C  C102  1  0.36218111  0.36218048  0.54907539  1  1.572759  0  0.22599  0.605466  0  4.159391  0
C  C103  1  0.63781597  0.63781451  0.45092438  1  1.573746  0  0.225934  0.605343  0  4.159492  0
C  C104  1  0.36276331  0.06280175  0.76076571  1  -0.069583  0  -0.01834  -0.025939  0  3.986989  0
C  C105  1  0.93719880  0.63723607  0.23923462  1  -0.069605  0  -0.01836  -0.025905  0  3.986911  0
C  C106  1  0.63723610  0.93719723  0.23923975  1  -0.069581  0  -0.018382  -0.026148  0  3.987233  0
C  C107  1  0.06280177  0.36276346  0.76076155  1  -0.069592  0  -0.018439  -0.026147  0  3.987214  0
C  C108  1  0.30710397  0.02249660  0.72033815  1  0.042289  0  -0.079554  -0.17861  0  3.943176  0
C  C109  1  0.97750471  0.69289538  0.27966046  1  0.042383  0  -0.079579  -0.178642  0  3.943146  0
C  C110  1  0.69289255  0.97750187  0.27966447  1  0.042277  0  -0.079572  -0.178519  0  3.943325  0
C  C111  1  0.02249588  0.30710762  0.72033625  1  0.042277  0  -0.079562  -0.17856  0  3.943276  0
C  C112  1  0.30762466  0.94233984  0.72506339  1  0.43767  0  0.081272  0.209099  0  4.040648  0
C  C113  1  0.05766204  0.69237484  0.27493493  1  0.43757  0  0.081263  0.209064  0  4.040596  0
C  C114  1  0.69237476  0.05766030  0.27493916  1  0.437682  0  0.081245  0.209013  0  4.04081  0
C  C115  1  0.94233854  0.30762642  0.72506180  1  0.437718  0  0.08124  0.209066  0  4.040574  0
C  C116  1  0.36280883  0.90046765  0.76835428  1  0.016857  0  -0.003825  -0.014084  0  3.988125  0
C  C117  1  0.09953377  0.63718934  0.23164391  1  0.016945  0  -0.003852  -0.014094  0  3.988139  0
C  C118  1  0.63719058  0.09953133  0.23164655  1  0.016882  0  -0.003874  -0.01408  0  3.988146  0
C  C119  1  0.90046681  0.36281135  0.76835514  1  0.016855  0  -0.003878  -0.014128  0  3.98823  0
C  C120  1  0.41784843  0.94177703  0.80858326  1  -0.032152  0  -0.089123  -0.123767  0  4.00959  0
C  C121  1  0.05822268  0.58215001  0.19141609  1  -0.032183  0  -0.08916  -0.123746  0  4.009603  0
C  C122  1  0.58215099  0.05822369  0.19141928  1  -0.032033  0  -0.089114  -0.123879  0  4.009674  0
C  C123  1  0.94177731  0.41784895  0.80858242  1  -0.032188  0  -0.089119  -0.123758  0  4.009666  0
C  C124  1  0.41787038  0.02224752  0.80518066  1  0.036046  0  -0.08403  -0.0942  0  3.989593  0
C  C125  1  0.97775329  0.58212813  0.19481896  1  0.036053  0  -0.084051  -0.094302  0  3.98952  0
C  C126  1  0.58212614  0.97775211  0.19482195  1  0.035958  0  -0.08403  -0.094105  0  3.989475  0
C  C127  1  0.02224671  0.41787315  0.80517952  1  0.036087  0  -0.08401  -0.094175  0  3.989484  0
C  C128  1  0.36287952  0.14903217  0.75734893  1  1.557715  0  0.22799  0.60674  0  4.165351  0
C  C129  1  0.85096823  0.63711978  0.24265096  1  1.557779  0  0.227985  0.606684  0  4.165384  0
C  C130  1  0.63711700  0.85096689  0.24265137  1  1.557661  0  0.22793  0.606694  0  4.165511  0
C  C131  1  0.14903178  0.36288439  0.75735094  1  1.557742  0  0.22792  0.606672  0  4.165632  0
C  C132  1  0.35976698  0.35976535  0.46279077  1  -0.032296  0  -0.022203  -0.026055  0  4.004901  0
C  C133  1  0.64023533  0.64023355  0.53720886  1  -0.032318  0  -0.022228  -0.026109  0  4.005024  0
C  C134  1  0.30430867  0.30430817  0.34948685  1  0.405087  0  0.088444  0.221925  0  3.988505  0
C  C135  1  0.69569132  0.69569195  0.65051280  1  0.405111  0  0.088478  0.221961  0  3.98846  0
C  C136  1  0.30843125  0.30843120  0.42963988  1  -0.012411  0  -0.099059  -0.208565  0  3.958028  0
C  C137  1  0.69156700  0.69156723  0.57035982  1  -0.012403  0  -0.099065  -0.208582  0  3.958095  0
C  C138  1  0.29588028  0.39616799  0.09446479  1  0.017181  0  -0.081046  -0.082344  0  3.979355  0
C  C139  1  0.60382952  0.70411935  0.90553622  1  0.017222  0  -0.080937  -0.082112  0  3.9792  0
C  C140  1  0.70412029  0.60383038  0.90553545  1  0.017213  0  -0.080966  -0.082236  0  3.979275  0
C  C141  1  0.39617163  0.29588017  0.09446458  1  0.017235  0  -0.080944  -0.082296  0  3.979245  0
C  C142  1  0.29676833  0.39696507  0.17497481  1  -0.046865  0  -0.089559  -0.136989  0  3.975948  0
C  C143  1  0.60303370  0.70323079  0.82502676  1  -0.046889  0  -0.089627  -0.137039  0  3.976003  0
C  C144  1  0.70323166  0.60303447  0.82502600  1  -0.046895  0  -0.089599  -0.137019  0  3.976064  0
C  C145  1  0.39696630  0.29676991  0.17497403  1  -0.046906  0  -0.089611  -0.13689  0  3.97589  0
C  C146  1  0.31678862  0.77329887  0.82178791  1  -0.044837  0  -0.088626  -0.133747  0  3.969745  0
C  C147  1  0.22670253  0.68321157  0.17821012  1  -0.044924  0  -0.088675  -0.133788  0  3.969662  0
C  C148  1  0.68321311  0.22670063  0.17820940  1  -0.044848  0  -0.088638  -0.133758  0  3.969607  0
C  C149  1  0.77329747  0.31678913  0.82178952  1  -0.044821  0  -0.088651  -0.133757  0  3.9697  0
C  C150  1  0.31642473  0.69280835  0.82025157  1  -0.023027  0  -0.078715  -0.076818  0  3.967328  0
C  C151  1  0.30719297  0.68357582  0.17974749  1  -0.022944  0  -0.078688  -0.076814  0  3.967031  0
C  C152  1  0.68357469  0.30719237  0.17974808  1  -0.02307  0  -0.07872  -0.076825  0  3.967226  0
C  C153  1  0.69280819  0.31642601  0.82025327  1  -0.023062  0  -0.078711  -0.076819  0  3.967092  0
C  C154  1  0.36252128  0.65262733  0.76609002  1  0.000398  0  -0.023994  -0.054541  0  3.997394  0
C  C155  1  0.34737390  0.63747882  0.23390891  1  0.000403  0  -0.024  -0.054633  0  3.997828  0
C  C156  1  0.63747871  0.34737164  0.23390849  1  0.000378  0  -0.024031  -0.054696  0  3.997986  0
C  C157  1  0.65262726  0.36252417  0.76609010  1  0.000393  0  -0.024002  -0.054705  0  3.997948  0
C  C158  1  0.40970678  0.69367932  0.71392104  1  -0.041578  0  -0.082827  -0.086342  0  3.986384  0
C  C159  1  0.30632149  0.59029463  0.28607729  1  -0.041646  0  -0.082818  -0.087635  0  3.986  0
C  C160  1  0.59029322  0.30632138  0.28607802  1  -0.041638  0  -0.08279  -0.087634  0  3.985939  0
C  C161  1  0.69367968  0.40970778  0.71392346  1  -0.041692  0  -0.082796  -0.087605  0  3.986057  0
C  C162  1  0.41015847  0.77412478  0.71562803  1  -0.02664  0  -0.091103  -0.143042  0  3.987424  0
C  C163  1  0.22587755  0.58984122  0.28436985  1  -0.026621  0  -0.091027  -0.142985  0  3.987744  0
C  C164  1  0.58984268  0.22587415  0.28436989  1  -0.026619  0  -0.091056  -0.142957  0  3.987942  0
C  C165  1  0.77412418  0.41015944  0.71563034  1  -0.026621  0  -0.091068  -0.143001  0  3.987838  0
C  C166  1  0.36343437  0.81457296  0.76915964  1  -0.07293  0  -0.000164  0.093068  0  3.998998  0
C  C167  1  0.18542782  0.63656489  0.23083783  1  -0.072915  0  -0.000154  0.093055  0  3.998785  0
C  C168  1  0.63656620  0.18542715  0.23084058  1  -0.072915  0  -0.000176  0.093024  0  3.998893  0
C  C169  1  0.81457275  0.36343464  0.76916181  1  -0.072933  0  -0.000161  0.093059  0  3.998898  0
C  C170  1  0.19055708  0.87245379  0.71627955  1  0.779911  0  0.213949  0.329975  0  4.12863  0
C  C171  1  0.12754760  0.80944290  0.28372000  1  0.780096  0  0.213972  0.329968  0  4.128494  0
C  C172  1  0.80944234  0.12754693  0.28372068  1  0.780119  0  0.213986  0.33003  0  4.128633  0
C  C173  1  0.87245183  0.19055840  0.71627964  1  0.780092  0  0.213985  0.330024  0  4.128411  0
C  C174  1  0.09320431  0.77401359  0.70045950  1  0.259872  0  -0.133414  -0.267271  0  3.924475  0
C  C175  1  0.22598749  0.90679575  0.29954179  1  0.259394  0  -0.133412  -0.267362  0  3.924517  0
C  C176  1  0.90679511  0.22598713  0.29954131  1  0.259574  0  -0.133413  -0.26739  0  3.924524  0
C  C177  1  0.77401193  0.09320496  0.70045959  1  0.25951  0  -0.133416  -0.267367  0  3.924505  0
C  C178  1  0.20709878  0.77383936  0.61416517  1  0.288946  0  -0.131645  -0.266041  0  3.915942  0
C  C179  1  0.22616129  0.79290062  0.38583537  1  0.288729  0  -0.131656  -0.266037  0  3.915949  0
C  C180  1  0.79290005  0.22616079  0.38583565  1  0.28878  0  -0.131661  -0.266141  0  3.915923  0
C  C181  1  0.77383813  0.20709894  0.61416487  1  0.288767  0  -0.131683  -0.266219  0  3.915983  0
C  C182  1  0.20375726  0.20375523  0.33452617  1  0.799438  0  0.210679  0.321146  0  4.111488  0
C  C183  1  0.79624274  0.79624489  0.66547348  1  0.799463  0  0.210628  0.321118  0  4.111515  0
C  C184  1  0.11294911  0.11294943  0.28485161  1  0.347123  0  -0.134668  -0.268925  0  3.923127  0
C  C185  1  0.88705031  0.88705070  0.71514689  1  0.347129  0  -0.13467  -0.268854  0  3.923122  0
C  C186  1  0.19385055  0.19385082  0.19284601  1  0.275993  0  -0.12994  -0.261419  0  3.911515  0
C  C187  1  0.80614945  0.80614872  0.80715306  1  0.276091  0  -0.129952  -0.261476  0  3.91149  0
S  S188  1  0.15202307  0.91043392  0.79563219  1  -0.025222  0  -0.226956  -0.428658  0  2.019507  0
S  S189  1  0.08956747  0.84797892  0.20436861  1  -0.025382  0  -0.226987  -0.428688  0  2.019512  0
S  S190  1  0.84797693  0.08956679  0.20436861  1  -0.025126  0  -0.226982  -0.428706  0  2.01949  0
S  S191  1  0.91043253  0.15202352  0.79563158  1  -0.025105  0  -0.226951  -0.428657  0  2.019466  0
S  S192  1  0.18015417  0.18015206  0.42507081  1  -0.062627  0  -0.218474  -0.419214  0  2.044448  0
S  S193  1  0.81984583  0.81984748  0.57492827  1  -0.062657  0  -0.218438  -0.419182  0  2.04452  0
N  N194  1  0.16365998  0.81236599  0.67607210  1  -1.164736  0  -0.278274  0.010148  0  3.678112  0
N  N195  1  0.18763535  0.83633998  0.32392798  1  -1.164381  0  -0.278225  0.010275  0  3.677984  0
N  N196  1  0.83633944  0.18763414  0.32392813  1  -1.164421  0  -0.278303  0.010185  0  3.678158  0
N  N197  1  0.81236407  0.16366073  0.67607167  1  -1.16439  0  -0.278301  0.010278  0  3.678022  0
N  N198  1  0.17150169  0.17149997  0.27204417  1  -1.123692  0  -0.276685  0.011771  0  3.658416  0
N  N199  1  0.82849830  0.82849957  0.72795548  1  -1.123708  0  -0.27668  0.011708  0  3.658446  0
O  O200  1  0.35839461  0.35839628  0.75799884  1  -1.232902  0  -0.573022  -1.026919  0  2.547777  0
O  O201  1  0.64160596  0.64160267  0.24200197  1  -1.232899  0  -0.573028  -1.027006  0  2.547888  0
O  O202  1  0.40421452  0.53356707  0.71261789  1  -1.184335  0  -0.316688  -0.55193  0  2.350207  0
O  O203  1  0.46643237  0.59578945  0.28738423  1  -1.184381  0  -0.31668  -0.552047  0  2.350714  0
O  O204  1  0.59578894  0.46643065  0.28738001  1  -1.184373  0  -0.316677  -0.551984  0  2.351015  0
O  O205  1  0.53356879  0.40421238  0.71261422  1  -1.18443  0  -0.316698  -0.552087  0  2.350641  0
O  O206  1  0.30141781  0.39564611  0.93394805  1  -1.177009  0  -0.317298  -0.548785  0  2.342124  0
O  O207  1  0.60435591  0.69857909  0.06605524  1  -1.176936  0  -0.317306  -0.54889  0  2.342134  0
O  O208  1  0.69858334  0.60435167  0.06605451  1  -1.176772  0  -0.317411  -0.548987  0  2.341853  0
O  O209  1  0.39564640  0.30141924  0.93394440  1  -1.176839  0  -0.317344  -0.548921  0  2.341838  0
O  O210  1  0.40901814  0.40901890  0.57947386  1  -1.164167  0  -0.31857  -0.549341  0  2.319704  0
O  O211  1  0.59098127  0.59098124  0.42052753  1  -1.164331  0  -0.31852  -0.549214  0  2.319919  0
O  O212  1  0.31599340  0.53282534  0.81199752  1  -1.173894  0  -0.316311  -0.546778  0  2.345233  0
O  O213  1  0.46717763  0.68400701  0.18800127  1  -1.173881  0  -0.316297  -0.546775  0  2.345107  0
O  O214  1  0.68401008  0.46717642  0.18799974  1  -1.173772  0  -0.316361  -0.546863  0  2.34485  0
O  O215  1  0.53282352  0.31599250  0.81199548  1  -1.173794  0  -0.316303  -0.546734  0  2.345148  0
O  O216  1  0.41336458  0.18210548  0.79798418  1  -1.172664  0  -0.318388  -0.552707  0  2.346245  0
O  O217  1  0.81789557  0.58663455  0.20201568  1  -1.172671  0  -0.318401  -0.552684  0  2.346218  0
O  O218  1  0.58663715  0.81789460  0.20201718  1  -1.172676  0  -0.318312  -0.552575  0  2.346464  0
O  O219  1  0.18210327  0.41336387  0.79798285  1  -1.172712  0  -0.318312  -0.552562  0  2.346499  0
O  O220  1  0.31271593  0.18276644  0.71431101  1  -1.162183  0  -0.31198  -0.538632  0  2.333751  0
O  O221  1  0.81723436  0.68728393  0.28568900  1  -1.162216  0  -0.311947  -0.538566  0  2.333727  0
O  O222  1  0.68728580  0.81723306  0.28569035  1  -1.162168  0  -0.311988  -0.538666  0  2.333658  0
O  O223  1  0.18276679  0.31271501  0.71430949  1  -1.162208  0  -0.311958  -0.538654  0  2.333659  0
O  O224  1  0.31683383  0.31683283  0.58568524  1  -1.187159  0  -0.312797  -0.53986  0  2.365622  0
O  O225  1  0.68316732  0.68316495  0.41431327  1  -1.18799  0  -0.312806  -0.539864  0  2.365371  0
O  O226  1  0.25638493  0.90108204  0.68038664  1  -1.097956  0  -0.152407  -0.229077  0  2.591581  0
O  O227  1  0.09891938  0.74361423  0.31961170  1  -1.097914  0  -0.152422  -0.229089  0  2.591462  0
O  O228  1  0.74361507  0.09891750  0.31961417  1  -1.098009  0  -0.152343  -0.22902  0  2.591784  0
O  O229  1  0.90107946  0.25638708  0.68038679  1  -1.097976  0  -0.152363  -0.229105  0  2.59156  0
O  O230  1  0.25678704  0.25678549  0.30810135  1  -1.100018  0  -0.132762  -0.2038  0  2.669027  0
O  O231  1  0.74321238  0.74321465  0.69189830  1  -1.100008  0  -0.132745  -0.203736  0  2.668928  0
