# generated using pymatgen
data_CdH10C12(NO4)2
_symmetry_space_group_name_H-M   'P 1'
_cell_length_a   7.44439878
_cell_length_b   8.30259628
_cell_length_c   10.67173740
_cell_angle_alpha   93.82309573
_cell_angle_beta   90.00043727
_cell_angle_gamma   90.00013438
_symmetry_Int_Tables_number   1
_chemical_formula_structural   CdH10C12(NO4)2
_chemical_formula_sum   'Cd2 H20 C24 N4 O16'
_cell_volume   658.12919243
_cell_formula_units_Z   2
loop_
 _symmetry_equiv_pos_site_id
 _symmetry_equiv_pos_as_xyz
  1  'x, y, z'
loop_
 _atom_site_type_symbol
 _atom_site_label
 _atom_site_symmetry_multiplicity
 _atom_site_fract_x
 _atom_site_fract_y
 _atom_site_fract_z
 _atom_site_occupancy
 _atom_site_pbe_bader_spin_density
 _atom_site_pbe_cm5_charge
 _atom_site_pbe_ddec_charge
 _atom_site_pbe_ddec_spin_density
 _atom_site_pbe_ddec_sum_bond_order
 _atom_site_pbe_magmom
Cd  Cd0  1  0.08428282  0.50000335  0.75000087  1  0  0.771213  1.020962  0  1.959826  0
Cd  Cd1  1  0.91571597  0.49999605  0.24999907  1  0  0.771201  1.02094  0  1.959834  0
H  H2  1  0.56306817  0.30064035  0.02715412  1  0  0.133521  0.132775  0  1.001814  0
H  H3  1  0.56307512  0.69935926  0.47284816  1  0  0.13353  0.13278  0  1.001767  0
H  H4  1  0.43692928  0.69935664  0.97284663  1  0  0.133519  0.132784  0  1.001763  0
H  H5  1  0.43692636  0.30064135  0.52715185  1  0  0.133526  0.132775  0  1.001788  0
H  H6  1  0.70912083  0.12283886  0.17577297  1  0  0.112798  0.124157  0  1.013867  0
H  H7  1  0.70912664  0.87715992  0.32423193  1  0  0.112842  0.124199  0  1.013825  0
H  H8  1  0.29087393  0.87715813  0.82422778  1  0  0.112815  0.124162  0  1.013818  0
H  H9  1  0.29087215  0.12283829  0.67576608  1  0  0.11285  0.12421  0  1.013846  0
H  H10  1  0.86183078  0.86634494  0.09024882  1  0  0.111729  0.128999  0  1.026057  0
H  H11  1  0.86182752  0.13365784  0.40975993  1  0  0.111733  0.129075  0  1.025914  0
H  H12  1  0.13816667  0.13365326  0.90975107  1  0  0.111742  0.129009  0  1.025954  0
H  H13  1  0.13816859  0.86634278  0.59023821  1  0  0.111742  0.129074  0  1.025939  0
H  H14  1  0.23900021  0.41406429  0.96872116  1  0  0.286366  0.386597  0  0.954391  0
H  H15  1  0.23900076  0.58593562  0.53127355  1  0  0.286384  0.386623  0  0.954377  0
H  H16  1  0.76100127  0.58593754  0.03127798  1  0  0.286381  0.386595  0  0.954388  0
H  H17  1  0.76100206  0.41406379  0.46872640  1  0  0.286381  0.386622  0  0.954378  0
H  H18  1  0.39236456  0.37461879  0.86204632  1  0  0.281997  0.366624  0  0.985079  0
H  H19  1  0.39236367  0.62538269  0.63795400  1  0  0.282004  0.366639  0  0.985063  0
H  H20  1  0.60763692  0.62538303  0.13795283  1  0  0.281978  0.366613  0  0.985104  0
H  H21  1  0.60763646  0.37461792  0.36204602  1  0  0.282008  0.366644  0  0.98506  0
C  C22  1  0.88640352  0.75979518  0.84632175  1  0  0.205024  0.576144  0  4.220074  0
C  C23  1  0.88639912  0.24020757  0.65368692  1  0  0.204946  0.576201  0  4.219773  0
C  C24  1  0.11359661  0.24020303  0.15367814  1  0  0.2049  0.575988  0  4.220111  0
C  C25  1  0.11360236  0.75979185  0.34631209  1  0  0.204962  0.576234  0  4.219752  0
C  C26  1  0.79083953  0.90833786  0.89878637  1  0  -0.000191  -0.073231  0  3.963101  0
C  C27  1  0.79084090  0.09166343  0.60122264  1  0  -0.000159  -0.073296  0  3.963119  0
C  C28  1  0.20916060  0.09166034  0.10121539  1  0  -0.000131  -0.073256  0  3.963139  0
C  C29  1  0.20916058  0.90833719  0.39877643  1  0  -0.000171  -0.073345  0  3.963107  0
C  C30  1  0.70747997  0.01276858  0.81912597  1  0  0.122132  0.0629  0  3.878156  0
C  C31  1  0.70748317  0.98722888  0.68087957  1  0  0.122112  0.06313  0  3.878055  0
C  C32  1  0.29252151  0.98723445  0.18087418  1  0  0.122177  0.063101  0  3.878018  0
C  C33  1  0.29251965  0.01277053  0.31911944  1  0  0.12211  0.063029  0  3.8781  0
C  C34  1  0.62629662  0.18694838  0.99606037  1  0  0.041904  -0.029923  0  3.833962  0
C  C35  1  0.62630149  0.81304766  0.50394465  1  0  0.041894  -0.029829  0  3.833717  0
C  C36  1  0.37369949  0.81304981  0.00394045  1  0  0.041962  -0.029855  0  3.833818  0
C  C37  1  0.37369999  0.18695175  0.49605529  1  0  0.041885  -0.029864  0  3.833775  0
C  C38  1  0.71086250  0.08719515  0.07589167  1  0  -0.079686  -0.09131  0  4.004248  0
C  C39  1  0.71086544  0.91280120  0.42411592  1  0  -0.079651  -0.091236  0  4.004054  0
C  C40  1  0.28913361  0.91280183  0.92411002  1  0  -0.079685  -0.091273  0  4.004205  0
C  C41  1  0.28913604  0.08719580  0.57588296  1  0  -0.079652  -0.091277  0  4.004189  0
C  C42  1  0.79268191  0.94511908  0.02838820  1  0  -0.077792  -0.093129  0  3.949293  0
C  C43  1  0.79268046  0.05488233  0.47161823  1  0  -0.077875  -0.093337  0  3.949115  0
C  C44  1  0.20732225  0.05488033  0.97161269  1  0  -0.077847  -0.09316  0  3.949275  0
C  C45  1  0.20731699  0.94511709  0.52837984  1  0  -0.077866  -0.093291  0  3.949136  0
N  N46  1  0.62199064  0.14899357  0.86971821  1  0  -0.101918  0.293278  0  3.954572  0
N  N47  1  0.62199160  0.85100488  0.63028505  1  0  -0.101912  0.293197  0  3.954418  0
N  N48  1  0.37800950  0.85100464  0.13028074  1  0  -0.101944  0.29319  0  3.954409  0
N  N49  1  0.37800585  0.14899694  0.36971503  1  0  -0.10191  0.293243  0  3.954327  0
O  O50  1  0.88796193  0.63541042  0.91032273  1  0  -0.307366  -0.542517  0  2.207406  0
O  O51  1  0.88794910  0.36459471  0.58969077  1  0  -0.307317  -0.542628  0  2.207356  0
O  O52  1  0.11204224  0.36459019  0.08967822  1  0  -0.307323  -0.54249  0  2.20739  0
O  O53  1  0.11205238  0.63540590  0.41031019  1  0  -0.307331  -0.542636  0  2.207332  0
O  O54  1  0.96991274  0.76394832  0.74254415  1  0  -0.312492  -0.546899  0  2.224168  0
O  O55  1  0.96991885  0.23605345  0.75746116  1  0  -0.312463  -0.546857  0  2.224052  0
O  O56  1  0.03008606  0.23605230  0.25745586  1  0  -0.312486  -0.546837  0  2.224127  0
O  O57  1  0.03008263  0.76394596  0.24253691  1  0  -0.312477  -0.546865  0  2.224007  0
O  O58  1  0.30038561  0.45639084  0.89411784  1  0  -0.583471  -0.756525  0  2.092434  0
O  O59  1  0.30038283  0.54361163  0.60587922  1  0  -0.583501  -0.75658  0  2.092276  0
O  O60  1  0.69961721  0.54360858  0.10588117  1  0  -0.583467  -0.756528  0  2.092418  0
O  O61  1  0.69961731  0.45638898  0.39412079  1  0  -0.583497  -0.756583  0  2.092276  0
O  O62  1  0.53653148  0.24293805  0.79585000  1  0  -0.218159  -0.448468  0  1.965126  0
O  O63  1  0.53652762  0.75706381  0.70415111  1  0  -0.218184  -0.448504  0  1.965147  0
O  O64  1  0.46347403  0.75706497  0.20415109  1  0  -0.218168  -0.448476  0  1.965052  0
O  O65  1  0.46346848  0.24294043  0.29585004  1  0  -0.218178  -0.448488  0  1.965142  0
