# generated using pymatgen
data_ZnH7C24Br2N(OF)4
_symmetry_space_group_name_H-M   'P 1'
_cell_length_a   21.53717181
_cell_length_b   21.67215807
_cell_length_c   22.12477544
_cell_angle_alpha   60.72945032
_cell_angle_beta   63.50565619
_cell_angle_gamma   89.99812879
_symmetry_Int_Tables_number   1
_chemical_formula_structural   ZnH7C24Br2N(OF)4
_chemical_formula_sum   'Zn4 H28 C96 Br8 N4 O16 F16'
_cell_volume   7741.34143754
_cell_formula_units_Z   4
loop_
 _symmetry_equiv_pos_site_id
 _symmetry_equiv_pos_as_xyz
  1  'x, y, z'
loop_
 _atom_site_type_symbol
 _atom_site_label
 _atom_site_symmetry_multiplicity
 _atom_site_fract_x
 _atom_site_fract_y
 _atom_site_fract_z
 _atom_site_occupancy
 _atom_site_pbe_bader_charge
 _atom_site_pbe_bader_spin_density
 _atom_site_pbe_cm5_charge
 _atom_site_pbe_ddec_charge
 _atom_site_pbe_ddec_spin_density
 _atom_site_pbe_ddec_sum_bond_order
 _atom_site_pbe_magmom
Zn  Zn0  1  0.53835156  0.04188323  0.91613080  1  1.303717  0  0.666743  0.860875  0  2.365125  0
Zn  Zn1  1  0.46171831  0.95817968  0.08375845  1  1.289405  0  0.663486  0.858106  0  2.370434  0
Zn  Zn2  1  0.96167362  0.45804540  0.08387365  1  1.303849  0  0.666898  0.860819  0  2.366039  0
Zn  Zn3  1  0.03829128  0.54180463  0.91621657  1  1.290047  0  0.663549  0.858063  0  2.371322  0
H  H4  1  0.82301359  0.25146147  0.49680968  1  0.126068  0  0.107346  0.11398  0  1.027142  0
H  H5  1  0.67693838  0.24853614  0.50319594  1  0.125311  0  0.107399  0.114105  0  1.026903  0
H  H6  1  0.17704433  0.74846010  0.50298608  1  0.125466  0  0.107471  0.113973  0  1.027651  0
H  H7  1  0.32296255  0.75153942  0.49699918  1  0.125491  0  0.107449  0.113922  0  1.027728  0
H  H8  1  0.57999911  0.07401109  0.12981367  1  0.105755  0  0.103836  0.112589  0  1.004589  0
H  H9  1  0.61569430  0.10666299  0.20483938  1  0.098579  0  0.105737  0.122312  0  0.9899  0
H  H10  1  0.69711284  0.20252090  0.87149745  1  0.104161  0  0.094245  0.106281  0  1.04921  0
H  H11  1  0.91993832  0.42618903  0.87004373  1  0.105126  0  0.103667  0.112123  0  1.004838  0
H  H12  1  0.88425152  0.39352957  0.79500804  1  0.091282  0  0.105663  0.12245  0  0.989279  0
H  H13  1  0.80282551  0.29765353  0.12835679  1  0.111529  0  0.094377  0.106437  0  1.0494  0
H  H14  1  0.30152557  0.79568150  0.12994686  1  0.101605  0  0.103447  0.11171  0  1.005295  0
H  H15  1  0.19741532  0.68776078  0.20490813  1  0.091538  0  0.105492  0.121828  0  0.990287  0
H  H16  1  0.42021428  0.92612704  0.87164068  1  0.115774  0  0.094411  0.106721  0  1.049519  0
H  H17  1  0.19896392  0.70376825  0.87003847  1  0.101406  0  0.10319  0.110964  0  1.005854  0
H  H18  1  0.30331143  0.81157232  0.79502340  1  0.089467  0  0.105304  0.121639  0  0.990204  0
H  H19  1  0.08030690  0.57336587  0.12835174  1  0.108334  0  0.094495  0.106847  0  1.04935  0
H  H20  1  0.30104915  0.07422489  0.13007887  1  0.076683  0  0.103645  0.111764  0  1.005262  0
H  H21  1  0.19643332  0.10690902  0.20494702  1  0.09701  0  0.105243  0.121317  0  0.991093  0
H  H22  1  0.42055764  0.20226321  0.87176156  1  0.110428  0  0.094234  0.106493  0  1.049547  0
H  H23  1  0.19866701  0.42551606  0.86982982  1  0.088734  0  0.103494  0.111756  0  1.005491  0
H  H24  1  0.30322519  0.39279043  0.79495323  1  0.099282  0  0.105413  0.121541  0  0.990102  0
H  H25  1  0.07917181  0.29751948  0.12813388  1  0.114882  0  0.094239  0.106524  0  1.049813  0
H  H26  1  0.57934369  0.79577480  0.12986795  1  0.087927  0  0.10367  0.112427  0  1.005157  0
H  H27  1  0.61460908  0.68778373  0.20499264  1  0.089145  0  0.105653  0.122202  0  0.989184  0
H  H28  1  0.69677891  0.92521629  0.87154874  1  0.111927  0  0.094364  0.106861  0  1.048613  0
H  H29  1  0.91913637  0.70259571  0.87034135  1  0.110091  0  0.103457  0.112009  0  1.004976  0
H  H30  1  0.88324221  0.80988317  0.79524686  1  0.082093  0  0.105471  0.122506  0  0.989499  0
H  H31  1  0.80164092  0.57296966  0.12866887  1  0.093899  0  0.093874  0.105805  0  1.049982  0
C  C32  1  0.41430997  0.91408106  0.00086764  1  1.5541  0  0.21831  0.602884  0  4.147644  0
C  C33  1  0.41436992  0.08512155  0.00101775  1  1.549288  0  0.218227  0.603377  0  4.150182  0
C  C34  1  0.58496683  0.08510812  0.00074023  1  1.560392  0  0.218444  0.603391  0  4.146725  0
C  C35  1  0.58469737  0.91382369  0.00077936  1  1.56052  0  0.21792  0.603066  0  4.14837  0
C  C36  1  0.08548937  0.41473617  0.99887084  1  1.549535  0  0.217989  0.603682  0  4.150535  0
C  C37  1  0.08590256  0.58564051  0.99914961  1  1.549828  0  0.218127  0.602103  0  4.149717  0
C  C38  1  0.91475106  0.58548782  0.99935643  1  1.559328  0  0.218293  0.601993  0  4.148899  0
C  C39  1  0.91498803  0.41497598  0.99916451  1  1.563559  0  0.218925  0.603995  0  4.147488  0
C  C40  1  0.82958219  0.37195508  0.25623983  1  1.233373  0  0.238145  0.332539  0  4.11499  0
C  C41  1  0.78848573  0.33006749  0.34009927  1  0.59185  0  0.104586  0.091101  0  4.043356  0
C  C42  1  0.82203366  0.30677910  0.38643841  1  0.136451  0  -0.000402  -0.022745  0  4.059249  0
C  C43  1  0.89822548  0.32937627  0.34087513  1  0.527091  0  0.104826  0.088904  0  4.049624  0
C  C44  1  0.93524402  0.37131764  0.25696088  1  1.199136  0  0.239599  0.336278  0  4.112326  0
C  C45  1  0.78620288  0.26301543  0.47389778  1  -0.066168  0  -0.071392  -0.073059  0  3.910978  0
C  C46  1  0.71374625  0.23698325  0.52611173  1  0.011334  0  -0.071652  -0.073751  0  3.910802  0
C  C47  1  0.60173457  0.17058574  0.65913255  1  0.525864  0  0.104602  0.088538  0  4.049511  0
C  C48  1  0.67792283  0.19320643  0.61357097  1  0.140463  0  -0.000341  -0.022341  0  4.058622  0
C  C49  1  0.71147295  0.16991645  0.65990587  1  0.590533  0  0.10481  0.091126  0  4.042697  0
C  C50  1  0.67037299  0.12799056  0.74376276  1  1.233509  0  0.238036  0.332581  0  4.114517  0
C  C51  1  0.56471400  0.12860770  0.74304602  1  1.190275  0  0.239524  0.336493  0  4.112638  0
C  C52  1  0.17044695  0.62826166  0.74344507  1  1.219797  0  0.237821  0.331455  0  4.117288  0
C  C53  1  0.21156204  0.67014607  0.65962658  1  0.583449  0  0.103863  0.089822  0  4.045663  0
C  C54  1  0.17797526  0.69325746  0.61335619  1  0.053465  0  -0.001541  -0.023398  0  4.066086  0
C  C55  1  0.10181486  0.67054045  0.65886270  1  0.602369  0  0.10432  0.087337  0  4.054818  0
C  C56  1  0.06483444  0.62861910  0.74274610  1  1.201619  0  0.239158  0.334568  0  4.117193  0
C  C57  1  0.21377364  0.73697522  0.52599395  1  -0.072874  0  -0.072049  -0.074419  0  3.916915  0
C  C58  1  0.28623375  0.76302813  0.47399154  1  0.008834  0  -0.072031  -0.074261  0  3.917145  0
C  C59  1  0.39819324  0.82948486  0.34111708  1  0.604384  0  0.104472  0.087635  0  4.054136  0
C  C60  1  0.32203298  0.80675301  0.38662919  1  0.052074  0  -0.00161  -0.023634  0  4.066266  0
C  C61  1  0.28843996  0.82986050  0.34036513  1  0.58408  0  0.103799  0.0898  0  4.045305  0
C  C62  1  0.32955022  0.87175971  0.25654489  1  1.219672  0  0.238012  0.332061  0  4.116641  0
C  C63  1  0.43516648  0.87143743  0.25723196  1  1.200592  0  0.239249  0.334169  0  4.11786  0
C  C64  1  0.62395745  0.12063916  0.07340584  1  -0.04755  0  -0.079291  -0.136716  0  3.923788  0
C  C65  1  0.66948070  0.16619365  0.07410225  1  -0.021035  0  -0.005282  0.090538  0  4.044324  0
C  C66  1  0.65960207  0.15317209  0.14824377  1  0.057689  0  -0.096792  -0.191521  0  3.995962  0
C  C67  1  0.69033655  0.19340796  0.92725326  1  -0.013177  0  -0.086028  -0.134381  0  3.930642  0
C  C68  1  0.73711796  0.24037063  0.92502781  1  0.019474  0  -0.011668  0.031515  0  4.021956  0
C  C69  1  0.79577470  0.30224736  0.85168505  1  -0.150084  0  -0.013144  0.076813  0  3.961916  0
C  C70  1  0.87596544  0.37956649  0.92644662  1  -0.031209  0  -0.07897  -0.135878  0  3.922783  0
C  C71  1  0.83042795  0.33402845  0.92574811  1  -0.045091  0  -0.005297  0.090209  0  4.044703  0
C  C72  1  0.84031763  0.34703906  0.85160656  1  0.064878  0  -0.096461  -0.191342  0  3.995504  0
C  C73  1  0.80958326  0.30677080  0.07260510  1  -0.016442  0  -0.086324  -0.13455  0  3.930699  0
C  C74  1  0.76278317  0.25984271  0.07482270  1  0.016397  0  -0.010976  0.032549  0  4.021114  0
C  C75  1  0.70415284  0.19795442  0.14817040  1  -0.145821  0  -0.01344  0.076047  0  3.961731  0
C  C76  1  0.63422160  0.13420915  0.00059736  1  0.00013  0  -0.015907  -0.016384  0  3.984932  0
C  C77  1  0.72693060  0.22704066  0.99950501  1  0.032576  0  0.006917  0.010434  0  3.909074  0
C  C78  1  0.86570879  0.36594928  0.99926831  1  0.001062  0  -0.016373  -0.017258  0  3.985422  0
C  C79  1  0.77295237  0.27319955  0.00034152  1  -0.03301  0  0.006593  0.010438  0  3.909189  0
C  C80  1  0.30910258  0.80558922  0.07351124  1  -0.016615  0  -0.078821  -0.134687  0  3.923567  0
C  C81  1  0.26302892  0.75926313  0.07418769  1  -0.028621  0  -0.005931  0.088505  0  4.045672  0
C  C82  1  0.20520576  0.69799886  0.14828908  1  0.065163  0  -0.097568  -0.19193  0  3.996056  0
C  C83  1  0.37616578  0.87928887  0.92737395  1  -0.069168  0  -0.086193  -0.133928  0  3.931452  0
C  C84  1  0.33148002  0.83450775  0.92513141  1  -0.01949  0  -0.010668  0.032576  0  4.021683  0
C  C85  1  0.33987900  0.84611737  0.85175612  1  -0.113  0  -0.013217  0.075582  0  3.963751  0
C  C86  1  0.19146765  0.69381745  0.92645562  1  -0.041035  0  -0.07849  -0.133416  0  3.922869  0
C  C87  1  0.23766924  0.74005022  0.92574831  1  -0.013904  0  -0.006286  0.087579  0  4.044405  0
C  C88  1  0.29549408  0.80134020  0.85164895  1  0.036988  0  -0.096553  -0.190707  0  3.995603  0
C  C89  1  0.12440708  0.62014516  0.07259512  1  0.022064  0  -0.086078  -0.134357  0  3.932033  0
C  C90  1  0.16918610  0.66485430  0.07480802  1  -0.03156  0  -0.011142  0.03162  0  4.021881  0
C  C91  1  0.16077629  0.65328147  0.14817375  1  -0.13598  0  -0.01299  0.076047  0  3.961792  0
C  C92  1  0.36527356  0.86501140  0.00073259  1  0.03572  0  -0.015976  -0.018438  0  3.98685  0
C  C93  1  0.27371992  0.77316210  0.99957272  1  -0.014741  0  0.006653  0.011831  0  3.906755  0
C  C94  1  0.13519099  0.63448651  0.99925518  1  -0.007244  0  -0.015916  -0.017784  0  3.985956  0
C  C95  1  0.22699990  0.72614694  0.00035644  1  0.035079  0  0.006635  0.012366  0  3.905159  0
C  C96  1  0.30872986  0.12070473  0.07362500  1  0.009976  0  -0.078942  -0.13457  0  3.923232  0
C  C97  1  0.26247715  0.16619175  0.07422789  1  -0.007736  0  -0.006138  0.088546  0  4.045311  0
C  C98  1  0.20435096  0.15326446  0.14829443  1  0.030019  0  -0.09647  -0.190451  0  3.995447  0
C  C99  1  0.37623987  0.19320919  0.92748690  1  0.001055  0  -0.085431  -0.132681  0  3.930089  0
C  C100  1  0.33138642  0.24006101  0.92517604  1  -0.012486  0  -0.011303  0.031423  0  4.02219  0
C  C101  1  0.33989777  0.30174993  0.85177142  1  -0.123276  0  -0.013758  0.075266  0  3.96319  0
C  C102  1  0.19096080  0.37901436  0.92628060  1  -0.068107  0  -0.078754  -0.134881  0  3.923635  0
C  C103  1  0.23720685  0.33352361  0.92566878  1  -0.012785  0  -0.006309  0.08903  0  4.045797  0
C  C104  1  0.29533636  0.34645747  0.85160222  1  0.025827  0  -0.096059  -0.190037  0  3.994853  0
C  C105  1  0.12344344  0.30650766  0.07242383  1  -0.006688  0  -0.085568  -0.133235  0  3.930149  0
C  C106  1  0.16827207  0.25962861  0.07472163  1  0.011063  0  -0.010941  0.032608  0  4.021471  0
C  C107  1  0.15974810  0.19793313  0.14812621  1  -0.147187  0  -0.013937  0.075433  0  3.962515  0
C  C108  1  0.36519554  0.13417418  0.00086926  1  0.006809  0  -0.016415  -0.018487  0  3.987186  0
C  C109  1  0.27328697  0.22682349  0.99958472  1  -0.047316  0  0.007051  0.011361  0  3.908929  0
C  C110  1  0.13453646  0.36557558  0.99903387  1  0.070777  0  -0.016898  -0.019357  0  3.988159  0
C  C111  1  0.22637528  0.27287437  0.00031060  1  0.033939  0  0.006853  0.01035  0  3.909308  0
C  C112  1  0.62323999  0.80535715  0.07348315  1  0.020158  0  -0.078796  -0.135876  0  3.923654  0
C  C113  1  0.66851118  0.75884698  0.07423855  1  -0.074703  0  -0.005831  0.088155  0  4.045082  0
C  C114  1  0.65849586  0.69775097  0.14840018  1  0.066269  0  -0.096351  -0.189876  0  3.994543  0
C  C115  1  0.68978845  0.87851949  0.92733242  1  -0.012069  0  -0.085867  -0.134536  0  3.929554  0
C  C116  1  0.73636218  0.83355056  0.92516306  1  0.068216  0  -0.011048  0.031041  0  4.021277  0
C  C117  1  0.79500741  0.84483230  0.85184565  1  -0.19929  0  -0.013719  0.07632  0  3.961161  0
C  C118  1  0.87499818  0.69274392  0.92674161  1  0.056973  0  -0.079158  -0.13515  0  3.921991  0
C  C119  1  0.82932669  0.73884725  0.92600465  1  -0.028751  0  -0.00478  0.088974  0  4.043127  0
C  C120  1  0.83933256  0.79991162  0.85183403  1  0.089796  0  -0.096385  -0.191609  0  3.99571  0
C  C121  1  0.80846615  0.61953453  0.07288851  1  0.005059  0  -0.085639  -0.132774  0  3.930734  0
C  C122  1  0.76151694  0.66413505  0.07506645  1  0.003473  0  -0.01119  0.030527  0  4.021145  0
C  C123  1  0.70287086  0.65286335  0.14836638  1  -0.169414  0  -0.013737  0.075018  0  3.964335  0
C  C124  1  0.63372415  0.86462038  0.00063730  1  -0.007743  0  -0.015886  -0.01701  0  3.985999  0
C  C125  1  0.72593310  0.77236379  0.99968316  1  -0.019284  0  0.006519  0.012469  0  3.907087  0
C  C126  1  0.86484265  0.63378791  0.99956831  1  -0.059877  0  -0.015663  -0.017395  0  3.986689  0
C  C127  1  0.77179433  0.72520397  0.00056432  1  0.025262  0  0.006215  0.012049  0  3.905332  0
Br  Br128  1  0.68728287  0.17701956  0.24953652  1  -0.084157  0  -0.002307  -0.098029  0  1.333353  0
Br  Br129  1  0.81271072  0.32311372  0.75032331  1  -0.084124  0  -0.002337  -0.098196  0  1.333642  0
Br  Br130  1  0.08515250  0.57261303  0.24949003  1  -0.08546  0  -0.001494  -0.096959  0  1.333683  0
Br  Br131  1  0.41547428  0.92686936  0.75045963  1  -0.089807  0  -0.001491  -0.097048  0  1.334379  0
Br  Br132  1  0.08370168  0.17714899  0.24940142  1  -0.089857  0  -0.001303  -0.09688  0  1.333784  0
Br  Br133  1  0.41594316  0.32250539  0.75051563  1  -0.088886  0  -0.001427  -0.096881  0  1.334512  0
Br  Br134  1  0.68583863  0.57252505  0.24977102  1  -0.084924  0  -0.001908  -0.097324  0  1.3345  0
Br  Br135  1  0.81217752  0.92529289  0.75041831  1  -0.087351  0  -0.002378  -0.098048  0  1.332261  0
N  N136  1  0.90155374  0.39234114  0.21520195  1  -1.256747  0  -0.299422  -0.334193  0  3.47171  0
N  N137  1  0.59840348  0.10757927  0.78480536  1  -1.257546  0  -0.299243  -0.334324  0  3.471784  0
N  N138  1  0.09854202  0.60777886  0.78441548  1  -1.234639  0  -0.298114  -0.329485  0  3.471075  0
N  N139  1  0.40145421  0.89227379  0.21556825  1  -1.234869  0  -0.298132  -0.329716  0  3.471404  0
O  O140  1  0.46444091  0.96734176  0.93245701  1  -1.15972  0  -0.320182  -0.548134  0  2.331306  0
O  O141  1  0.40185093  0.89859494  0.06943398  1  -1.156442  0  -0.321208  -0.555183  0  2.335967  0
O  O142  1  0.40181158  0.03205673  0.06958810  1  -1.16515  0  -0.321648  -0.555884  0  2.336452  0
O  O143  1  0.46467437  0.10036345  0.93259862  1  -1.165022  0  -0.319508  -0.54793  0  2.33348  0
O  O144  1  0.53471379  0.03204139  0.06933957  1  -1.168767  0  -0.321672  -0.555926  0  2.33632  0
O  O145  1  0.59733860  0.10027530  0.93235726  1  -1.155419  0  -0.319866  -0.548247  0  2.33114  0
O  O146  1  0.59708182  0.96696043  0.93239772  1  -1.171541  0  -0.319728  -0.5481  0  2.329888  0
O  O147  1  0.53457730  0.89852773  0.06938378  1  -1.169692  0  -0.321397  -0.555584  0  2.336601  0
O  O148  1  0.03528780  0.39959269  0.06729950  1  -1.162407  0  -0.318897  -0.547132  0  2.333788  0
O  O149  1  0.09802862  0.46777031  0.93030469  1  -1.167196  0  -0.321807  -0.556416  0  2.337044  0
O  O150  1  0.09832054  0.60113971  0.93058979  1  -1.151774  0  -0.321271  -0.554928  0  2.336808  0
O  O151  1  0.03563768  0.53252974  0.06757009  1  -1.162464  0  -0.32013  -0.547965  0  2.331471  0
O  O152  1  0.96526750  0.60123393  0.93072744  1  -1.168914  0  -0.321145  -0.554558  0  2.33711  0
O  O153  1  0.90269694  0.53264522  0.06771397  1  -1.166881  0  -0.320177  -0.547828  0  2.33136  0
O  O154  1  0.90267348  0.39969967  0.06756357  1  -1.157127  0  -0.319859  -0.548286  0  2.331373  0
O  O155  1  0.96520175  0.46808365  0.93057631  1  -1.170467  0  -0.32216  -0.556507  0  2.336638  0
F  F156  1  0.00712727  0.39162212  0.21608795  1  -0.593234  0  -0.04908  -0.081943  0  1.388768  0
F  F157  1  0.93648819  0.31040649  0.37848431  1  -0.611073  0  -0.073854  -0.087082  0  1.36902  0
F  F158  1  0.79600836  0.39299495  0.21443116  1  -0.611497  0  -0.049469  -0.082601  0  1.396046  0
F  F159  1  0.71585513  0.31265376  0.37528304  1  -0.618352  0  -0.06781  -0.082997  0  1.392155  0
F  F160  1  0.78410520  0.18735375  0.62471882  1  -0.617217  0  -0.067872  -0.083047  0  1.391622  0
F  F161  1  0.70393778  0.10692868  0.78558257  1  -0.610369  0  -0.049575  -0.082697  0  1.395121  0
F  F162  1  0.56347315  0.18954678  0.62152151  1  -0.610824  0  -0.073678  -0.086925  0  1.368698  0
F  F163  1  0.49283310  0.10827104  0.78391484  1  -0.58521  0  -0.049216  -0.08208  0  1.388933  0
F  F164  1  0.99291627  0.60822307  0.78353090  1  -0.592172  0  -0.04973  -0.0827  0  1.387739  0
F  F165  1  0.06359261  0.68936591  0.62118272  1  -0.611129  0  -0.074416  -0.087394  0  1.367769  0
F  F166  1  0.20414316  0.60738750  0.78516341  1  -0.606977  0  -0.050859  -0.084061  0  1.393124  0
F  F167  1  0.28422555  0.68770990  0.62443272  1  -0.619596  0  -0.068315  -0.083463  0  1.390207  0
F  F168  1  0.21577690  0.81227909  0.37556485  1  -0.619565  0  -0.068268  -0.08348  0  1.390117  0
F  F169  1  0.29584974  0.89261412  0.21483096  1  -0.606838  0  -0.050919  -0.084407  0  1.392992  0
F  F170  1  0.43641923  0.81065781  0.37879213  1  -0.61112  0  -0.074456  -0.087462  0  1.367611  0
F  F171  1  0.50708445  0.89189268  0.21643214  1  -0.591607  0  -0.049952  -0.082234  0  1.387677  0
