# generated using pymatgen
data_Al2H9C20N2ClO14
_symmetry_space_group_name_H-M   'P 1'
_cell_length_a   6.66578789
_cell_length_b   11.27005582
_cell_length_c   11.06096724
_cell_angle_alpha   79.15792979
_cell_angle_beta   73.49367614
_cell_angle_gamma   71.22851304
_symmetry_Int_Tables_number   1
_chemical_formula_structural   Al2H9C20N2ClO14
_chemical_formula_sum   'Al2 H9 C20 N2 Cl1 O14'
_cell_volume   750.03119201
_cell_formula_units_Z   1
loop_
 _symmetry_equiv_pos_site_id
 _symmetry_equiv_pos_as_xyz
  1  'x, y, z'
loop_
 _atom_site_type_symbol
 _atom_site_label
 _atom_site_symmetry_multiplicity
 _atom_site_fract_x
 _atom_site_fract_y
 _atom_site_fract_z
 _atom_site_occupancy
 _atom_site_pbe_bader_charge
 _atom_site_pbe_bader_spin_density
 _atom_site_pbe_cm5_charge
 _atom_site_pbe_ddec_charge
 _atom_site_pbe_ddec_spin_density
 _atom_site_pbe_ddec_sum_bond_order
 _atom_site_pbe_magmom
Al  Al0  1  0.48931653  0.49996840  0.50024986  1  2.505189  0  0.396838  1.644905  0  2.579102  0
Al  Al1  1  0.99069217  0.50276905  0.49384725  1  2.500147  0  0.396801  1.641209  0  2.569172  0
H  H2  1  0.20683575  0.41773419  0.64549038  1  0.62816  0  0.336112  0.411804  0  0.897985  0
H  H3  1  0.75455072  0.59802311  0.35197657  1  0.64054  0  0.338559  0.418232  0  0.89239  0
H  H4  1  0.10213513  0.57836792  0.09422721  1  0.146535  0  0.107277  0.116571  0  1.021547  0
H  H5  1  0.76250966  0.42864315  0.13602256  1  0.121658  0  0.114306  0.133278  0  0.997862  0
H  H6  1  0.24157546  0.57129300  0.85967170  1  0.077858  0  0.108376  0.112999  0  1.004926  0
H  H7  1  0.26771816  0.23805931  0.32804416  1  0.157213  0  0.125164  0.146129  0  1.000499  0
H  H8  1  0.47427087  0.77124865  0.34933605  1  0.135453  0  0.127196  0.133053  0  1.043872  0
H  H9  1  0.72910750  0.88650750  0.58443481  1  0.122536  0  0.117698  0.125352  0  0.970863  0
H  H10  1  0.62508184  0.12166416  0.57632414  1  0.128874  0  0.119683  0.126844  0  0.972274  0
C  C11  1  0.86507058  0.27555216  0.48373847  1  1.593397  0  0.270832  0.642726  0  4.09265  0
C  C12  1  0.64271253  0.49454798  0.72519797  1  1.56337  0  0.274661  0.665682  0  4.072508  0
C  C13  1  0.12128343  0.72944321  0.49584587  1  1.591005  0  0.266891  0.635386  0  4.106922  0
C  C14  1  0.34703811  0.50731095  0.26853013  1  1.593356  0  0.273406  0.648069  0  4.078986  0
C  C15  1  0.57746315  0.49380353  0.86582032  1  0.040718  0  -0.011453  -0.099986  0  3.928114  0
C  C16  1  0.42464402  0.50483774  0.12859981  1  0.00833  0  -0.007454  -0.016806  0  3.967078  0
C  C17  1  0.72444116  0.45189332  0.94520474  1  0.007351  0  0.025802  0.143379  0  3.997195  0
C  C18  1  0.27576406  0.54336008  0.05176304  1  -0.036419  0  -0.081935  -0.097242  0  3.968387  0
C  C19  1  0.64854643  0.46069584  0.07522583  1  -0.017733  0  -0.085519  -0.162289  0  3.958626  0
C  C20  1  0.35357282  0.53942476  0.92178897  1  0.068588  0  -0.077548  -0.071856  0  3.97631  0
C  C21  1  0.94075665  0.13652306  0.47382091  1  0.020297  0  0.002962  -0.065578  0  3.892239  0
C  C22  1  0.15593218  0.07202901  0.40891860  1  0.002028  0  0.018679  0.087634  0  3.911158  0
C  C23  1  0.79068111  0.06942377  0.53217450  1  -0.03051  0  -0.06199  -0.063666  0  3.945088  0
C  C24  1  0.31070892  0.13583264  0.33453349  1  0.028112  0  -0.064061  -0.146413  0  3.880621  0
C  C25  1  0.51132406  0.06998697  0.26820834  1  0.19943  0  0.085993  0.033623  0  3.964283  0
C  C26  1  0.05933339  0.87068260  0.48195376  1  0.00725  0  0.004787  -0.05449  0  3.905813  0
C  C27  1  0.84858783  0.93760673  0.53625302  1  -0.038646  0  -0.071014  -0.088786  0  3.971203  0
C  C28  1  0.21477226  0.93706900  0.41336488  1  0.057249  0  0.011228  0.067324  0  3.928946  0
C  C29  1  0.42407525  0.87306654  0.34492462  1  0.077047  0  -0.057083  -0.11949  0  3.900002  0
C  C30  1  0.57006349  0.93703493  0.27435248  1  0.204456  0  0.082651  0.015631  0  3.953873  0
N  N31  1  0.65434394  0.14274101  0.18207427  1  0.419134  0  0.060858  0.515071  0  4.252843  0
N  N32  1  0.78900462  0.86245158  0.21458827  1  0.407942  0  0.061903  0.524297  0  4.20297  0
Cl  Cl33  1  0.00075530  0.38006498  0.89152415  1  -0.191324  0  0.023067  -0.053781  0  1.548809  0
O  O34  1  0.66388541  0.32866832  0.48862463  1  -1.25532  0  -0.231375  -0.584002  0  2.364526  0
O  O35  1  0.83127191  0.50479181  0.66704949  1  -1.258559  0  -0.23495  -0.60074  0  2.399119  0
O  O36  1  0.98105316  0.67897501  0.48759139  1  -1.239251  0  -0.232009  -0.578  0  2.324506  0
O  O37  1  0.48067909  0.51562210  0.32675942  1  -1.262745  0  -0.231047  -0.58821  0  2.360987  0
O  O38  1  0.31027604  0.67239296  0.51448890  1  -1.258389  0  -0.235165  -0.585026  0  2.367381  0
O  O39  1  0.15359678  0.50050141  0.32031475  1  -1.265501  0  -0.23212  -0.589627  0  2.344486  0
O  O40  1  0.00358595  0.32792273  0.49137940  1  -1.248667  0  -0.231624  -0.582129  0  2.340028  0
O  O41  1  0.50049994  0.48714983  0.67263131  1  -1.261954  0  -0.231483  -0.589399  0  2.339883  0
O  O42  1  0.24141457  0.44390976  0.55486844  1  -1.435819  0  -0.451701  -0.987705  0  2.196702  0
O  O43  1  0.73448947  0.55975777  0.43942704  1  -1.44619  0  -0.451891  -0.993455  0  2.204354  0
O  O44  1  0.72941186  0.20323415  0.23124180  1  -0.432144  0  -0.104083  -0.30284  0  1.959299  0
O  O45  1  0.68009382  0.14082096  0.06723740  1  -0.431106  0  -0.123381  -0.315403  0  1.882156  0
O  O46  1  0.81338787  0.75181088  0.19866381  1  -0.489998  0  -0.120968  -0.332935  0  1.948003  0
O  O47  1  0.93806160  0.91334474  0.18573367  1  -0.452949  0  -0.121873  -0.319345  0  1.908137  0
