# generated using pymatgen
data_ZnH20(C2O)12
_symmetry_space_group_name_H-M   'P 1'
_cell_length_a   7.16122083
_cell_length_b   8.10303326
_cell_length_c   19.46100000
_cell_angle_alpha   85.22123274
_cell_angle_beta   88.18381730
_cell_angle_gamma   88.96939800
_symmetry_Int_Tables_number   1
_chemical_formula_structural   ZnH20(C2O)12
_chemical_formula_sum   'Zn2 H40 C48 O24'
_cell_volume   1124.65090911
_cell_formula_units_Z   2
loop_
 _symmetry_equiv_pos_site_id
 _symmetry_equiv_pos_as_xyz
  1  'x, y, z'
loop_
 _atom_site_type_symbol
 _atom_site_label
 _atom_site_symmetry_multiplicity
 _atom_site_fract_x
 _atom_site_fract_y
 _atom_site_fract_z
 _atom_site_occupancy
 _atom_site_hle17_bader_spin_density
 _atom_site_hle17_ddec_charge
 _atom_site_hle17_ddec_spin_density
 _atom_site_hle17_ddec_sum_bond_order
 _atom_site_hle17_magmom
 _atom_site_hse06_10hf_bader_spin_density
 _atom_site_hse06_10hf_ddec_charge
 _atom_site_hse06_10hf_ddec_spin_density
 _atom_site_hse06_10hf_ddec_sum_bond_order
 _atom_site_hse06_10hf_magmom
 _atom_site_hse06_bader_spin_density
 _atom_site_hse06_ddec_charge
 _atom_site_hse06_ddec_spin_density
 _atom_site_hse06_ddec_sum_bond_order
 _atom_site_hse06_magmom
 _atom_site_pbe_bader_charge
 _atom_site_pbe_bader_spin_density
 _atom_site_pbe_cm5_charge
 _atom_site_pbe_ddec_charge
 _atom_site_pbe_ddec_spin_density
 _atom_site_pbe_ddec_sum_bond_order
 _atom_site_pbe_magmom
Zn  Zn0  1  0.42519559  0.33493450  0.45197929  1  0  1.200283  0  1.704166  0  0  1.033445  0  2.182518  0  0  1.084079  0  2.113638  0  1.359523  0  0.683763  0.997536  0  2.230419  0
Zn  Zn1  1  0.57481050  0.66506835  0.54802244  1  0  1.200372  0  1.704139  0  0  1.033483  0  2.182472  0  0  1.084119  0  2.113591  0  1.359523  0  0.683813  0.997567  0  2.230373  0
H  H2  1  0.13014166  0.76684312  0.36686778  1  0  0.116967  0  0.941898  0  0  0.124807  0  1.006021  0  0  0.128821  0  1.002753  0  0.142817  0  0.11254  0.121857  0  1.008518  0
H  H3  1  0.86986307  0.23315726  0.63313097  1  0  0.11695  0  0.941941  0  0  0.124787  0  1.006085  0  0  0.128802  0  1.002815  0  0.142839  0  0.112544  0.121837  0  1.00858  0
H  H4  1  0.17014088  0.79192639  0.14395628  1  0  0.118841  0  0.958311  0  0  0.125862  0  1.024797  0  0  0.129628  0  1.022496  0  0.091993  0  0.10858  0.123135  0  1.026556  0
H  H5  1  0.82985958  0.20807894  0.85604440  1  0  0.118927  0  0.958192  0  0  0.125937  0  1.024697  0  0  0.129704  0  1.022393  0  0.091999  0  0.108594  0.123211  0  1.026451  0
H  H6  1  0.35536529  0.19812341  0.25389509  1  0  0.125462  0  0.924554  0  0  0.135342  0  0.983628  0  0  0.13984  0  0.979605  0  0.097423  0  0.110904  0.132041  0  0.9866  0
H  H7  1  0.64462824  0.80187820  0.74610683  1  0  0.125526  0  0.924435  0  0  0.135362  0  0.983573  0  0  0.139861  0  0.979547  0  0.097412  0  0.110883  0.132061  0  0.986546  0
H  H8  1  0.42417468  0.90977392  0.07706460  1  0  0.0667  0  0.954788  0  0  0.074092  0  1.029139  0  0  0.075366  0  1.027752  0  0.110819  0  0.102762  0.073124  0  1.030274  0
H  H9  1  0.57581056  0.09022274  0.92293862  1  0  0.066596  0  0.954817  0  0  0.07398  0  1.02917  0  0  0.075252  0  1.027782  0  0.11082  0  0.102722  0.073015  0  1.030299  0
H  H10  1  0.43755960  0.11657305  0.03826978  1  0  0.0686  0  0.9386  0  0  0.082156  0  1.005164  0  0  0.082048  0  1.005677  0  0.0779  0  0.107249  0.082188  0  1.004904  0
H  H11  1  0.56242575  0.88341741  0.96173314  1  0  0.068584  0  0.938627  0  0  0.082183  0  1.005148  0  0  0.082078  0  1.005661  0  0.077816  0  0.10724  0.082214  0  1.00489  0
H  H12  1  0.26550913  0.80816264  0.97819166  1  0  0.08585  0  0.976204  0  0  0.096563  0  1.038907  0  0  0.098718  0  1.03945  0  0.059645  0  0.096105  0.094998  0  1.038636  0
H  H13  1  0.73447734  0.19184392  0.02181222  1  0  0.085813  0  0.976085  0  0  0.096582  0  1.038744  0  0  0.098737  0  1.039287  0  0.059469  0  0.096125  0.095002  0  1.038494  0
H  H14  1  0.02634791  0.21003958  0.08495413  1  0  0.100293  0  0.958399  0  0  0.109285  0  1.02109  0  0  0.11271  0  1.018892  0  0.095881  0  0.101085  0.106867  0  1.022649  0
H  H15  1  0.97364124  0.78997318  0.91504745  1  0  0.100178  0  0.958492  0  0  0.109243  0  1.021097  0  0  0.112675  0  1.018895  0  0.095545  0  0.101069  0.10683  0  1.022643  0
H  H16  1  0.55046111  0.57322682  0.27185750  1  0  0.120761  0  0.952066  0  0  0.128326  0  1.017526  0  0  0.132531  0  1.013864  0  0.121241  0  0.110328  0.12525  0  1.020245  0
H  H17  1  0.44955766  0.42676984  0.72813864  1  0  0.120815  0  0.95191  0  0  0.128284  0  1.017483  0  0  0.132488  0  1.01382  0  0.121273  0  0.110297  0.125207  0  1.020202  0
H  H18  1  0.76261494  0.01036425  0.15467395  1  0  0.125466  0  0.9453  0  0  0.132257  0  1.011188  0  0  0.136276  0  1.008211  0  0.12692  0  0.111531  0.129342  0  1.01344  0
H  H19  1  0.23740944  0.98963117  0.84532628  1  0  0.125526  0  0.94537  0  0  0.132306  0  1.011251  0  0  0.136325  0  1.008276  0  0.126573  0  0.111539  0.129391  0  1.013507  0
H  H20  1  0.74237814  0.97511651  0.37821051  1  0  0.114923  0  0.950053  0  0  0.123325  0  1.014289  0  0  0.127479  0  1.010553  0  0.127347  0  0.114585  0.120254  0  1.017132  0
H  H21  1  0.25761408  0.02488015  0.62178800  1  0  0.114932  0  0.950053  0  0  0.123323  0  1.014295  0  0  0.127476  0  1.010561  0  0.127267  0  0.114594  0.120267  0  1.01712  0
H  H22  1  0.41229225  0.55948749  0.17122104  1  0  0.062072  0  0.946332  0  0  0.07289  0  1.016046  0  0  0.072898  0  1.015599  0  0.07273  0  0.102022  0.07283  0  1.016356  0
H  H23  1  0.58769686  0.44052774  0.82877327  1  0  0.061974  0  0.946438  0  0  0.072884  0  1.01603  0  0  0.072892  0  1.015583  0  0.073233  0  0.102035  0.072823  0  1.016345  0
H  H24  1  0.64271096  0.47114984  0.16849232  1  0  0.066335  0  0.93579  0  0  0.079059  0  0.999885  0  0  0.079541  0  0.998659  0  0.077905  0  0.102107  0.078685  0  1.000717  0
H  H25  1  0.35727555  0.52885425  0.83150908  1  0  0.066432  0  0.935514  0  0  0.079053  0  0.999712  0  0  0.079528  0  0.998487  0  0.077813  0  0.102099  0.07868  0  1.000545  0
H  H26  1  0.23217590  0.47103218  0.08439823  1  0  0.099937  0  0.954414  0  0  0.109717  0  1.017485  0  0  0.112971  0  1.015429  0  0.075062  0  0.101709  0.107333  0  1.019087  0
H  H27  1  0.76781891  0.52897686  0.91560136  1  0  0.099942  0  0.954331  0  0  0.109733  0  1.017408  0  0  0.11299  0  1.01535  0  0.075104  0  0.101723  0.107348  0  1.019012  0
H  H28  1  0.80900960  0.58670852  0.03832114  1  0  0.102279  0  0.936473  0  0  0.114438  0  0.992497  0  0  0.117269  0  0.991658  0  0.058359  0  0.105021  0.1124  0  0.993142  0
H  H29  1  0.19097403  0.41330052  0.96167499  1  0  0.102259  0  0.936578  0  0  0.114428  0  0.992594  0  0  0.117254  0  0.991756  0  0.058731  0  0.104981  0.112391  0  0.993239  0
H  H30  1  0.95192345  0.40968889  0.31391548  1  0  0.396916  0  0.90179  0  0  0.361835  0  0.983076  0  0  0.375192  0  0.969226  0  0.65061  0  0.307328  0.352546  0  0.992454  0
H  H31  1  0.04808265  0.59031396  0.68608882  1  0  0.396937  0  0.901819  0  0  0.361825  0  0.983146  0  0  0.375187  0  0.969253  0  0.650675  0  0.307319  0.352535  0  0.992524  0
H  H32  1  0.94280596  0.36563835  0.20542084  1  0  0.393549  0  0.902257  0  0  0.361539  0  0.982124  0  0  0.374981  0  0.967878  0  0.659752  0  0.302953  0.352096  0  0.992089  0
H  H33  1  0.05720151  0.63436574  0.79458135  1  0  0.393555  0  0.90229  0  0  0.361563  0  0.98213  0  0  0.375008  0  0.967849  0  0.659664  0  0.302969  0.35212  0  0.992096  0
H  H34  1  0.10555246  0.48696994  0.40332170  1  0  0.423983  0  0.872044  0  0  0.394977  0  0.931329  0  0  0.404762  0  0.917014  0  0.62303  0  0.300966  0.388089  0  0.941393  0
H  H35  1  0.89445776  0.51303663  0.59668088  1  0  0.423951  0  0.87207  0  0  0.394973  0  0.931315  0  0  0.404759  0  0.916998  0  0.622987  0  0.301004  0.388086  0  0.941377  0
H  H36  1  0.03208123  0.38962797  0.47137967  1  0  0.437806  0  0.814629  0  0  0.413301  0  0.880938  0  0  0.422747  0  0.869687  0  0.636963  0  0.314951  0.406488  0  0.889117  0
H  H37  1  0.96791844  0.61034268  0.52861349  1  0  0.437887  0  0.814602  0  0  0.413329  0  0.881052  0  0  0.422778  0  0.869796  0  0.637303  0  0.31492  0.406513  0  0.889244  0
H  H38  1  0.76077840  0.21971023  0.41495900  1  0  0.42527  0  0.863154  0  0  0.396196  0  0.924293  0  0  0.406052  0  0.909808  0  0.620509  0  0.300173  0.389208  0  0.934565  0
H  H39  1  0.23922356  0.78028890  0.58504085  1  0  0.425217  0  0.863241  0  0  0.396117  0  0.924421  0  0  0.405976  0  0.90993  0  0.619695  0  0.300123  0.389128  0  0.934694  0
H  H40  1  0.73457091  0.15744422  0.49516150  1  0  0.452557  0  0.838041  0  0  0.421417  0  0.900526  0  0  0.432186  0  0.884814  0  0.663385  0  0.297372  0.41383  0  0.91158  0
H  H41  1  0.26543101  0.84255739  0.50483929  1  0  0.452523  0  0.838074  0  0  0.421373  0  0.900578  0  0  0.432142  0  0.884866  0  0.663404  0  0.297328  0.413786  0  0.911632  0
C  C42  1  0.24493019  0.98986649  0.31685314  1  0  -0.051543  0  3.76275  0  0  -0.024975  0  3.999347  0  0  -0.033234  0  4.023242  0  -0.081536  0  -0.016883  -0.019748  0  3.983282  0
C  C43  1  0.75507601  0.01013016  0.68314880  1  0  -0.051463  0  3.762656  0  0  -0.024896  0  3.99926  0  0  -0.033165  0  4.023153  0  -0.081428  0  -0.016855  -0.01967  0  3.983196  0
C  C44  1  0.16854333  0.83231328  0.31756757  1  0  -0.069808  0  3.690642  0  0  -0.112316  0  3.946945  0  0  -0.11037  0  3.966928  0  -0.100274  0  -0.07878  -0.113268  0  3.93331  0
C  C45  1  0.83145868  0.16768338  0.68243545  1  0  -0.069645  0  3.690744  0  0  -0.11218  0  3.947069  0  0  -0.110238  0  3.967067  0  -0.100844  0  -0.078729  -0.113129  0  3.933429  0
C  C46  1  0.14406572  0.76239669  0.25521634  1  0  -0.082652  0  3.822808  0  0  -0.058759  0  4.064687  0  0  -0.069236  0  4.090648  0  0.075247  0  -0.025572  -0.051935  0  4.047147  0
C  C47  1  0.85594338  0.23759377  0.74478886  1  0  -0.082937  0  3.823228  0  0  -0.058991  0  4.065099  0  0  -0.069469  0  4.091055  0  0.075876  0  -0.025606  -0.052171  0  4.047561  0
C  C48  1  0.19357305  0.84884431  0.19157661  1  0  -0.183141  0  3.696777  0  0  -0.220542  0  3.954167  0  0  -0.221491  0  3.972762  0  -0.019397  0  -0.09604  -0.219643  0  3.941713  0
C  C49  1  0.80643048  0.15114492  0.80842460  1  0  -0.183294  0  3.696973  0  0  -0.220735  0  3.954358  0  0  -0.221682  0  3.97295  0  -0.019412  0  -0.096158  -0.219836  0  3.941909  0
C  C50  1  0.26977835  0.00617421  0.19167427  1  0  0.261724  0  3.816728  0  0  0.256838  0  4.081998  0  0  0.265189  0  4.098222  0  0.435156  0  0.082351  0.250727  0  4.071116  0
C  C51  1  0.73021669  0.99382121  0.80832785  1  0  0.261893  0  3.816902  0  0  0.257117  0  4.081997  0  0  0.265471  0  4.098217  0  0.435046  0  0.082488  0.251002  0  4.071121  0
C  C52  1  0.29350074  0.07621589  0.25417178  1  0  -0.138609  0  3.67543  0  0  -0.179117  0  3.934503  0  0  -0.178846  0  3.950421  0  0.091403  0  -0.083009  -0.178831  0  3.923571  0
C  C53  1  0.70649841  0.92378448  0.74583011  1  0  -0.138807  0  3.675458  0  0  -0.179318  0  3.934531  0  0  -0.17905  0  3.95046  0  0.091352  0  -0.08304  -0.179034  0  3.923604  0
C  C54  1  0.06357986  0.59647702  0.25515785  1  0  0.666694  0  3.779179  0  0  0.613365  0  4.075856  0  0  0.648017  0  4.066663  0  1.46588  0  0.241682  0.58987  0  4.081608  0
C  C55  1  0.93643337  0.40351716  0.74484205  1  0  0.666862  0  3.779  0  0  0.613495  0  4.075746  0  0  0.648153  0  4.06655  0  1.465317  0  0.241732  0.59  0  4.081497  0
C  C56  1  0.28213067  0.06490414  0.38340854  1  0  0.662537  0  3.920438  0  0  0.610352  0  4.21829  0  0  0.644345  0  4.211142  0  1.613481  0  0.207939  0.587339  0  4.22239  0
C  C57  1  0.71786701  0.93509995  0.61659324  1  0  0.662648  0  3.920309  0  0  0.610458  0  4.218151  0  0  0.644469  0  4.210978  0  1.613412  0  0.207964  0.587442  0  4.222249  0
C  C58  1  0.34859332  0.02934019  0.07015245  1  0  0.043539  0  3.655094  0  0  -0.020277  0  3.919486  0  0  -0.012284  0  3.923951  0  0.359928  0  -0.062928  -0.025722  0  3.916508  0
C  C59  1  0.65140037  0.97065275  0.92985029  1  0  0.043632  0  3.65503  0  0  -0.020211  0  3.919435  0  0  -0.012214  0  3.923896  0  0.36015  0  -0.062847  -0.025661  0  3.916452  0
C  C60  1  0.16641388  0.01215397  0.03532840  1  0  0.045122  0  3.779129  0  0  0.064999  0  4.015249  0  0  0.063616  0  4.040078  0  -0.044682  0  -0.021495  0.065946  0  3.998445  0
C  C61  1  0.83358249  0.98784517  0.96467357  1  0  0.045123  0  3.779014  0  0  0.065048  0  4.015092  0  0  0.063655  0  4.039942  0  -0.043866  0  -0.021495  0.066008  0  3.998263  0
C  C62  1  0.14961527  0.89331968  0.98777277  1  0  -0.117805  0  3.764678  0  0  -0.134898  0  4.008342  0  0  -0.138004  0  4.03068  0  -0.043793  0  -0.094334  -0.132643  0  3.993155  0
C  C63  1  0.85038519  0.10668565  0.01222688  1  0  -0.117786  0  3.764539  0  0  -0.134932  0  4.008167  0  0  -0.138035  0  4.030505  0  -0.043735  0  -0.09437  -0.132671  0  3.992986  0
C  C64  1  0.01529321  0.11861296  0.04737779  1  0  -0.103511  0  3.752309  0  0  -0.125262  0  4.001925  0  0  -0.127628  0  4.022959  0  -0.059777  0  -0.092758  -0.123531  0  3.987589  0
C  C65  1  0.98470295  0.88139856  0.95262325  1  0  -0.103463  0  3.752416  0  0  -0.125287  0  4.001989  0  0  -0.127658  0  4.023031  0  -0.060058  0  -0.092804  -0.123556  0  3.987654  0
C  C66  1  0.58979592  0.67133793  0.39702437  1  0  0.68919  0  3.869369  0  0  0.635986  0  4.155125  0  0  0.672003  0  4.147603  0  1.587221  0  0.228038  0.61153  0  4.15947  0
C  C67  1  0.41019622  0.32866368  0.60297397  1  0  0.689002  0  3.869688  0  0  0.635868  0  4.155335  0  0  0.671883  0  4.147813  0  1.587814  0  0.22798  0.611411  0  4.159676  0
C  C68  1  0.64289288  0.76644058  0.33013726  1  0  -0.043729  0  3.765694  0  0  -0.018107  0  4.00321  0  0  -0.026847  0  4.026699  0  -0.012503  0  -0.015182  -0.012579  0  3.987479  0
C  C69  1  0.35710488  0.23355979  0.66986055  1  0  -0.043647  0  3.765878  0  0  -0.0181  0  4.003411  0  0  -0.026841  0  4.0269  0  -0.012162  0  -0.015182  -0.012582  0  3.9877  0
C  C70  1  0.61133808  0.69576724  0.26838811  1  0  -0.177942  0  3.713307  0  0  -0.217851  0  3.974064  0  0  -0.219101  0  3.993147  0  -0.016398  0  -0.093614  -0.216626  0  3.961162  0
C  C71  1  0.38867379  0.30422446  0.73160623  1  0  -0.177925  0  3.713159  0  0  -0.21775  0  3.973927  0  0  -0.218996  0  3.99301  0  -0.016195  0  -0.093612  -0.216522  0  3.961021  0
C  C72  1  0.65553265  0.78379649  0.20545122  1  0  0.260071  0  3.823214  0  0  0.253578  0  4.088592  0  0  0.261605  0  4.105275  0  0.432241  0  0.081616  0.247692  0  4.077415  0
C  C73  1  0.34447770  0.21620264  0.79454596  1  0  0.260021  0  3.823123  0  0  0.253595  0  4.088377  0  0  0.261616  0  4.105062  0  0.431747  0  0.081701  0.247713  0  4.077199  0
C  C74  1  0.72939254  0.94277281  0.20405712  1  0  -0.136506  0  3.656264  0  0  -0.17515  0  3.912734  0  0  -0.173797  0  3.928151  0  0.009926  0  -0.081631  -0.175752  0  3.902406  0
C  C75  1  0.27063036  0.05722756  0.79594244  1  0  -0.136731  0  3.656478  0  0  -0.175331  0  3.912893  0  0  -0.173981  0  3.928314  0  0.010777  0  -0.081664  -0.17592  0  3.90253  0
C  C76  1  0.75894448  0.01238805  0.26606015  1  0  -0.078427  0  3.814946  0  0  -0.054331  0  4.054962  0  0  -0.064936  0  4.080357  0  -0.031809  0  -0.020092  -0.047478  0  4.037858  0
C  C77  1  0.24107152  0.98760736  0.73393864  1  0  -0.078281  0  3.814675  0  0  -0.054202  0  4.054741  0  0  -0.064823  0  4.080133  0  -0.031847  0  -0.020089  -0.047342  0  4.037651  0
C  C78  1  0.71782875  0.92371760  0.32953669  1  0  -0.063802  0  3.684938  0  0  -0.10871  0  3.941778  0  0  -0.106249  0  3.960894  0  0.046943  0  -0.075061  -0.110023  0  3.928843  0
C  C79  1  0.28217601  0.07628153  0.67046159  1  0  -0.063913  0  3.685131  0  0  -0.108787  0  3.942009  0  0  -0.106322  0  3.961121  0  0.046499  0  -0.075063  -0.11011  0  3.92907  0
C  C80  1  0.83561165  0.17985716  0.26504012  1  0  0.673469  0  3.77523  0  0  0.619449  0  4.071137  0  0  0.654066  0  4.062432  0  1.474439  0  0.248551  0.59594  0  4.076569  0
C  C81  1  0.16439601  0.82013578  0.73495885  1  0  0.673532  0  3.775165  0  0  0.61938  0  4.071255  0  0  0.654045  0  4.062504  0  1.474631  0  0.248482  0.59585  0  4.07671  0
C  C82  1  0.54766262  0.56358588  0.14275793  1  0  0.050566  0  3.635004  0  0  -0.013251  0  3.899155  0  0  -0.004081  0  3.902813  0  0.371863  0  -0.062358  -0.01934  0  3.896459  0
C  C83  1  0.45233638  0.43642316  0.85724161  1  0  0.050582  0  3.634878  0  0  -0.013158  0  3.898927  0  0  -0.003983  0  3.902571  0  0.371673  0  -0.062371  -0.019251  0  3.896229  0
C  C84  1  0.52313895  0.53080126  0.06898204  1  0  0.057119  0  3.762105  0  0  0.074075  0  4.0051  0  0  0.07316  0  4.028647  0  0.001421  0  -0.016671  0.074596  0  3.989223  0
C  C85  1  0.47683500  0.46920159  0.93101288  1  0  0.056916  0  3.762214  0  0  0.073893  0  4.005186  0  0  0.072974  0  4.028735  0  0.000907  0  -0.016621  0.07444  0  3.989265  0
C  C86  1  0.34922965  0.48303504  0.04713400  1  0  -0.115012  0  3.756476  0  0  -0.135413  0  4.009176  0  0  -0.138333  0  4.030936  0  -0.026881  0  -0.089589  -0.133342  0  3.99441  0
C  C87  1  0.65074992  0.51696657  0.95286500  1  0  -0.115104  0  3.756324  0  0  -0.13555  0  4.009069  0  0  -0.138472  0  4.030838  0  -0.026451  0  -0.089701  -0.133486  0  3.994295  0
C  C88  1  0.67390616  0.54796271  0.02143190  1  0  -0.104236  0  3.739918  0  0  -0.12454  0  3.989907  0  0  -0.126578  0  4.010904  0  -0.06919  0  -0.089403  -0.123093  0  3.975657  0
C  C89  1  0.32607033  0.45205500  0.97856401  1  0  -0.104189  0  3.73995  0  0  -0.124514  0  3.989926  0  0  -0.126543  0  4.010914  0  -0.068868  0  -0.089297  -0.123074  0  3.975668  0
O  O90  1  0.23226699  0.99138125  0.43990651  1  0  -0.620562  0  1.938814  0  0  -0.568556  0  2.15204  0  0  -0.591085  0  2.140158  0  -1.186052  0  -0.319465  -0.552882  0  2.159801  0
O  O91  1  0.76771806  0.00862655  0.56009119  1  0  -0.620658  0  1.938607  0  0  -0.568669  0  2.151833  0  0  -0.591205  0  2.139944  0  -1.186057  0  -0.31956  -0.552994  0  2.159594  0
O  O92  1  0.36636005  0.20498502  0.37477237  1  0  -0.677994  0  2.066959  0  0  -0.610702  0  2.344535  0  0  -0.640502  0  2.328243  0  -1.172964  0  -0.338014  -0.589799  0  2.355031  0
O  O93  1  0.63364451  0.79502526  0.62523015  1  0  -0.6781  0  2.067129  0  0  -0.610723  0  2.344596  0  0  -0.640528  0  2.328301  0  -1.172815  0  -0.338002  -0.589809  0  2.355086  0
O  O94  1  0.01615110  0.52435580  0.31662694  1  0  -0.558078  0  2.176086  0  0  -0.492785  0  2.39329  0  0  -0.517047  0  2.379389  0  -1.180584  0  -0.312782  -0.476125  0  2.402425  0
O  O95  1  0.98386344  0.47564333  0.68337225  1  0  -0.558203  0  2.176107  0  0  -0.492878  0  2.393329  0  0  -0.517154  0  2.379405  0  -1.18037  0  -0.312818  -0.476214  0  2.40246  0
O  O96  1  0.04091064  0.52797735  0.20056229  1  0  -0.566045  0  1.97958  0  0  -0.51581  0  2.196676  0  0  -0.537176  0  2.185657  0  -1.169163  0  -0.288264  -0.50124  0  2.203992  0
O  O97  1  0.95909698  0.47201807  0.79944071  1  0  -0.566017  0  1.979281  0  0  -0.515846  0  2.19649  0  0  -0.537214  0  2.18546  0  -1.16886  0  -0.288293  -0.501277  0  2.203806  0
O  O98  1  0.33091088  0.10251790  0.13467351  1  0  -0.283435  0  2.319692  0  0  -0.216488  0  2.555123  0  0  -0.234221  0  2.558259  0  -1.072447  0  -0.183415  -0.203851  0  2.552577  0
O  O99  1  0.66909390  0.89747999  0.86532892  1  0  -0.283382  0  2.319801  0  0  -0.216488  0  2.555232  0  0  -0.234225  0  2.55837  0  -1.072704  0  -0.183412  -0.203848  0  2.552683  0
O  O100  1  0.50382551  0.53705721  0.39304608  1  0  -0.639593  0  2.079445  0  0  -0.566924  0  2.35084  0  0  -0.595684  0  2.333905  0  -1.182885  0  -0.31201  -0.546912  0  2.361862  0
O  O101  1  0.49616811  0.46293944  0.60695036  1  0  -0.639612  0  2.079733  0  0  -0.566915  0  2.351052  0  0  -0.595669  0  2.334106  0  -1.183293  0  -0.312011  -0.546921  0  2.362119  0
O  O102  1  0.63443248  0.73570701  0.45142223  1  0  -0.632998  0  2.097163  0  0  -0.559722  0  2.368404  0  0  -0.58922  0  2.351163  0  -1.160259  0  -0.306142  -0.539249  0  2.379681  0
O  O103  1  0.36556401  0.26428593  0.54857687  1  0  -0.632857  0  2.097188  0  0  -0.559627  0  2.36841  0  0  -0.589126  0  2.35117  0  -1.160472  0  -0.306101  -0.539154  0  2.379688  0
O  O104  1  0.86039668  0.24840390  0.31958419  1  0  -0.569525  0  2.035033  0  0  -0.50645  0  2.246308  0  0  -0.530378  0  2.236335  0  -1.17074  0  -0.273736  -0.490086  0  2.252833  0
O  O105  1  0.13961373  0.75159152  0.68041775  1  0  -0.569542  0  2.035178  0  0  -0.506352  0  2.24647  0  0  -0.530297  0  2.236465  0  -1.170895  0  -0.273672  -0.489981  0  2.253005  0
O  O106  1  0.87574994  0.25272151  0.20331272  1  0  -0.540976  0  2.122803  0  0  -0.488511  0  2.344697  0  0  -0.511006  0  2.330752  0  -1.184423  0  -0.317389  -0.472964  0  2.353958  0
O  O107  1  0.12426608  0.74727266  0.79668971  1  0  -0.541017  0  2.122721  0  0  -0.488507  0  2.344629  0  0  -0.511017  0  2.330643  0  -1.184425  0  -0.317385  -0.472954  0  2.353898  0
O  O108  1  0.62736601  0.72597443  0.14274507  1  0  -0.288323  0  2.325339  0  0  -0.216157  0  2.558825  0  0  -0.234754  0  2.562686  0  -1.061227  0  -0.178363  -0.203103  0  2.555895  0
O  O109  1  0.37264284  0.27403090  0.85725191  1  0  -0.288138  0  2.324983  0  0  -0.216067  0  2.558494  0  0  -0.234648  0  2.562338  0  -1.061522  0  -0.178378  -0.203024  0  2.555576  0
O  O110  1  0.13883344  0.45182339  0.45090416  1  0  -0.823782  0  1.879227  0  0  -0.767709  0  2.079145  0  0  -0.78807  0  2.047891  0  -1.223776  0  -0.569339  -0.75324  0  2.101017  0
O  O111  1  0.86116023  0.54817079  0.54909853  1  0  -0.823795  0  1.879196  0  0  -0.767747  0  2.079094  0  0  -0.78811  0  2.04784  0  -1.224138  0  -0.569377  -0.753284  0  2.100958  0
O  O112  1  0.71460482  0.25244903  0.45991092  1  0  -0.846772  0  1.85222  0  0  -0.786059  0  2.048193  0  0  -0.807845  0  2.011962  0  -1.244483  0  -0.569868  -0.770628  0  2.073409  0
O  O113  1  0.28539438  0.74754886  0.54008798  1  0  -0.846676  0  1.85227  0  0  -0.785936  0  2.048224  0  0  -0.807725  0  2.011996  0  -1.243659  0  -0.569775  -0.770503  0  2.073439  0
