# generated using pymatgen
data_Al2H31C34Br3(N4O5)2
_symmetry_space_group_name_H-M   'P 1'
_cell_length_a   6.83503670
_cell_length_b   22.38797530
_cell_length_c   26.51262267
_cell_angle_alpha   101.12399387
_cell_angle_beta   90.00031925
_cell_angle_gamma   89.99925900
_symmetry_Int_Tables_number   1
_chemical_formula_structural   Al2H31C34Br3(N4O5)2
_chemical_formula_sum   'Al4 H62 C68 Br6 N16 O20'
_cell_volume   3980.80763974
_cell_formula_units_Z   2
loop_
 _symmetry_equiv_pos_site_id
 _symmetry_equiv_pos_as_xyz
  1  'x, y, z'
loop_
 _atom_site_type_symbol
 _atom_site_label
 _atom_site_symmetry_multiplicity
 _atom_site_fract_x
 _atom_site_fract_y
 _atom_site_fract_z
 _atom_site_occupancy
 _atom_site_pbe_bader_charge
 _atom_site_pbe_bader_spin_density
 _atom_site_pbe_cm5_charge
 _atom_site_pbe_ddec_charge
 _atom_site_pbe_ddec_spin_density
 _atom_site_pbe_ddec_sum_bond_order
 _atom_site_pbe_magmom
Al  Al0  1  0.82433319  0.49913822  0.50044396  1  2.506015  0  0.402162  1.648388  0  2.550073  0
Al  Al1  1  0.32433434  0.50086098  0.49955286  1  2.505981  0  0.402189  1.648287  0  2.550271  0
Al  Al2  1  0.33767777  0.00071509  0.00150568  1  2.505434  0  0.402792  1.645532  0  2.557188  0
Al  Al3  1  0.83768164  0.99927991  0.99849036  1  2.505492  0  0.402804  1.645534  0  2.557312  0
H  H4  1  0.85894086  0.83471412  0.76660125  1  0.059757  0  0.081192  0.032933  0  1.051028  0
H  H5  1  0.35894502  0.16528353  0.23339482  1  0.060113  0  0.081222  0.032958  0  1.050929  0
H  H6  1  0.79879112  0.75033838  0.70389557  1  0.073629  0  0.088685  0.098122  0  1.010141  0
H  H7  1  0.29878378  0.24965809  0.29610082  1  0.073553  0  0.088701  0.098181  0  1.010091  0
H  H8  1  0.10820824  0.64608673  0.76464114  1  0.076892  0  0.105217  0.091805  0  0.956144  0
H  H9  1  0.60820265  0.35390980  0.23535241  1  0.076793  0  0.105237  0.091842  0  0.956146  0
H  H10  1  0.81906027  0.74677073  0.80503348  1  0.116658  0  0.087584  0.099757  0  1.045664  0
H  H11  1  0.31906745  0.25322460  0.19495794  1  0.116575  0  0.08757  0.099665  0  1.04559  0
H  H12  1  0.01371855  0.71875543  0.83807492  1  0.028996  0  0.10143  0.117723  0  0.959772  0
H  H13  1  0.51372773  0.28123915  0.16191931  1  0.028988  0  0.101478  0.117729  0  0.95989  0
H  H14  1  0.33522194  0.75726390  0.69632753  1  0.077148  0  0.102857  0.124589  0  0.978275  0
H  H15  1  0.83520992  0.24273920  0.30367277  1  0.077266  0  0.102904  0.124631  0  0.978221  0
H  H16  1  0.39381100  0.68842567  0.71707044  1  0.056136  0  0.087371  0.101309  0  1.02362  0
H  H17  1  0.89380091  0.31157646  0.28292990  1  0.06114  0  0.087381  0.101361  0  1.023539  0
H  H18  1  0.99086622  0.77670321  0.66884982  1  0.064056  0  0.105742  0.120712  0  0.972276  0
H  H19  1  0.49086169  0.22329803  0.33114715  1  0.064242  0  0.105671  0.12067  0  0.972273  0
H  H20  1  0.34655415  0.73271372  0.80489713  1  0.074852  0  0.101085  0.082782  0  0.969151  0
H  H21  1  0.84655791  0.26728910  0.19510202  1  0.074942  0  0.101066  0.082734  0  0.969191  0
H  H22  1  0.39414292  0.91887316  0.11986693  1  0.118701  0  0.106932  0.122518  0  1.07539  0
H  H23  1  0.89412298  0.08112542  0.88013148  1  0.118672  0  0.10685  0.122401  0  1.075431  0
H  H24  1  0.38169596  0.63925013  0.30699192  1  0.104062  0  0.106306  0.109415  0  1.008639  0
H  H25  1  0.88167761  0.36075914  0.69301228  1  0.104201  0  0.106377  0.109578  0  1.008574  0
H  H26  1  0.35321798  0.57307430  0.37240638  1  0.102226  0  0.110839  0.117317  0  0.997841  0
H  H27  1  0.85320052  0.42692779  0.62759354  1  0.102308  0  0.11085  0.1173  0  0.997869  0
H  H28  1  0.81527755  0.71510175  0.35260898  1  0.130712  0  0.105566  0.114388  0  1.030971  0
H  H29  1  0.31525693  0.28490409  0.64739745  1  0.130813  0  0.105512  0.114372  0  1.03091  0
H  H30  1  0.18789358  0.88757337  0.76523044  1  0.404224  0  0.274728  0.217917  0  1.003304  0
H  H31  1  0.87791741  0.92310094  0.73011486  1  0.007191  0  0.0794  0.071449  0  1.011511  0
H  H32  1  0.94863917  0.87573006  0.67109797  1  0.045435  0  0.097962  0.105267  0  0.988559  0
H  H33  1  0.10008158  0.93776027  0.69848741  1  0.059962  0  0.100987  0.111492  0  0.979126  0
H  H34  1  0.68789026  0.11242436  0.23476894  1  0.404151  0  0.274757  0.217984  0  1.0032  0
H  H35  1  0.37791267  0.07690140  0.26988432  1  0.007156  0  0.079375  0.071399  0  1.011583  0
H  H36  1  0.44863419  0.12427309  0.32890127  1  0.045398  0  0.097966  0.105252  0  0.988596  0
H  H37  1  0.60006751  0.06223907  0.30151267  1  0.059625  0  0.100935  0.111431  0  0.979009  0
H  H38  1  0.48172438  0.81702226  0.20564458  1  0.455577  0  0.288208  0.224106  0  1.023661  0
H  H39  1  0.62468846  0.90191735  0.25924907  1  0.076196  0  0.102117  0.113348  0  0.98507  0
H  H40  1  0.36652906  0.90216798  0.27117908  1  0.029153  0  0.087468  0.090019  0  0.992601  0
H  H41  1  0.46668721  0.95113161  0.23228140  1  0.009955  0  0.095514  0.098598  0  1.019379  0
H  H42  1  0.98171103  0.18297551  0.79435275  1  0.455536  0  0.288177  0.224134  0  1.023407  0
H  H43  1  0.12465569  0.09807526  0.74075100  1  0.076571  0  0.102124  0.113383  0  0.985074  0
H  H44  1  0.86649793  0.09782910  0.72882045  1  0.028927  0  0.087544  0.090175  0  0.99261  0
H  H45  1  0.96665033  0.04886612  0.76772168  1  0.010073  0  0.09545  0.098503  0  1.019432  0
H  H46  1  0.67059183  0.80249359  0.12590122  1  0.464985  0  0.324771  0.269722  0  0.938702  0
H  H47  1  0.73643845  0.72810115  0.19254263  1  0.080001  0  0.102679  0.110511  0  1.011013  0
H  H48  1  0.93729480  0.70891486  0.14948156  1  0.057784  0  0.106246  0.114306  0  0.983229  0
H  H49  1  0.69220026  0.70034759  0.12572716  1  0.054293  0  0.110936  0.120405  0  0.967352  0
H  H50  1  0.17057332  0.19751045  0.87410432  1  0.464881  0  0.324754  0.262785  0  0.950022  0
H  H51  1  0.23643192  0.27190949  0.80746683  1  0.079849  0  0.102739  0.110486  0  1.010974  0
H  H52  1  0.43730567  0.29108767  0.85052881  1  0.058101  0  0.106248  0.114307  0  0.98325  0
H  H53  1  0.19220241  0.29965933  0.87428339  1  0.054059  0  0.110913  0.120479  0  0.967245  0
H  H54  1  0.63450600  0.88838158  0.15333757  1  0.494569  0  0.287859  0.207059  0  1.086541  0
H  H55  1  0.58785329  0.98919751  0.16532877  1  0.032522  0  0.098562  0.101312  0  1.000843  0
H  H56  1  0.63157295  0.98171384  0.09811540  1  0.101114  0  0.11081  0.119474  0  1.043035  0
H  H57  1  0.82867050  0.00041585  0.14223428  1  0.032274  0  0.102473  0.109833  0  0.998664  0
H  H58  1  0.13449129  0.11162077  0.84666216  1  0.494383  0  0.287885  0.207463  0  1.085328  0
H  H59  1  0.08782922  0.01080391  0.83467054  1  0.032326  0  0.098577  0.101353  0  1.000985  0
H  H60  1  0.13155898  0.01828726  0.90188471  1  0.100989  0  0.110802  0.119488  0  1.043031  0
H  H61  1  0.32865682  0.99958467  0.85776447  1  0.032375  0  0.102503  0.109982  0  0.998575  0
H  H62  1  0.58038291  0.57587479  0.49240967  1  0.63472  0  0.324536  0.400888  0  0.912532  0
H  H63  1  0.08038526  0.42413453  0.50760694  1  0.634645  0  0.324484  0.400814  0  0.912659  0
H  H64  1  0.58589494  0.92022840  0.99572438  1  0.591886  0  0.353291  0.433535  0  0.844703  0
H  H65  1  0.08588854  0.07976830  0.00428375  1  0.592074  0  0.353246  0.433496  0  0.84479  0
C  C66  1  0.57118475  0.43527516  0.56248190  1  1.598939  0  0.270999  0.658479  0  4.078368  0
C  C67  1  0.07120459  0.56472506  0.43751393  1  1.599107  0  0.271064  0.658644  0  4.077622  0
C  C68  1  0.57394123  0.42031260  0.42509465  1  1.662345  0  0.271595  0.718843  0  4.154319  0
C  C69  1  0.07395356  0.57968554  0.57490387  1  1.662773  0  0.271495  0.718799  0  4.154284  0
C  C70  1  0.95473427  0.76255154  0.70510621  1  -0.054299  0  -0.156737  -0.25084  0  3.809637  0
C  C71  1  0.45472922  0.23744565  0.29488841  1  -0.05458  0  -0.156758  -0.251068  0  3.809738  0
C  C72  1  0.00393537  0.67998971  0.75616991  1  -0.025997  0  -0.05961  0.029664  0  3.685962  0
C  C73  1  0.50393238  0.32000740  0.24382355  1  -0.025768  0  -0.059748  0.029374  0  3.686152  0
C  C74  1  0.97285653  0.73247923  0.80193142  1  -0.03925  0  -0.158343  -0.236131  0  3.854521  0
C  C75  1  0.47286280  0.26751856  0.19806398  1  -0.03908  0  -0.158286  -0.235826  0  3.854639  0
C  C76  1  0.09544135  0.86861583  0.88292981  1  0.144692  0  -0.046517  -0.203186  0  3.959213  0
C  C77  1  0.59546126  0.13138296  0.11706373  1  0.144396  0  -0.046405  -0.203092  0  3.958976  0
C  C78  1  0.07824358  0.70596045  0.70959828  1  0.149794  0  0.000987  0.157592  0  3.878272  0
C  C79  1  0.57822907  0.29403779  0.29039870  1  0.149289  0  0.001092  0.157914  0  3.877956  0
C  C80  1  0.99954481  0.81531710  0.75060908  1  0.300908  0  0.006712  0.110127  0  3.80139  0
C  C81  1  0.49955098  0.18468255  0.24938481  1  0.300516  0  0.006769  0.110435  0  3.800899  0
C  C82  1  0.09783210  0.78861668  0.79449909  1  0.113003  0  0.001406  0.097651  0  3.873999  0
C  C83  1  0.59784298  0.21138360  0.20549715  1  0.113048  0  0.001387  0.09748  0  3.873986  0
C  C84  1  0.30174831  0.76216124  0.77836079  1  0.000262  0  -0.062953  0.030743  0  3.712399  0
C  C85  1  0.80175047  0.23784110  0.22163794  1  0.000324  0  -0.062983  0.030728  0  3.712425  0
C  C86  1  0.29360543  0.72739771  0.72285499  1  -0.0401  0  -0.160901  -0.246887  0  3.845339  0
C  C87  1  0.79359937  0.27260330  0.27714372  1  -0.045156  0  -0.160918  -0.24699  0  3.845202  0
C  C88  1  0.09915088  0.83265935  0.84229282  1  -0.41623  0  -0.029251  -0.03416  0  4.061199  0
C  C89  1  0.59916939  0.16733788  0.15770380  1  -0.415743  0  -0.029365  -0.034254  0  4.061041  0
C  C90  1  0.07496873  0.66122168  0.66222141  1  -0.549321  0  -0.027099  -0.028298  0  4.030777  0
C  C91  1  0.57494654  0.33877233  0.33777863  1  -0.549745  0  -0.027175  -0.028399  0  4.031042  0
C  C92  1  0.07471783  0.62422885  0.62218362  1  0.294525  0  -0.04551  -0.201536  0  3.957434  0
C  C93  1  0.57470293  0.37576726  0.37781182  1  0.294868  0  -0.04559  -0.2016  0  3.957534  0
C  C94  1  0.26821479  0.89605487  0.13207480  1  -0.073579  0  -0.124001  -0.234834  0  4.065972  0
C  C95  1  0.76819584  0.10394510  0.86792312  1  -0.073686  0  -0.123848  -0.234602  0  4.065941  0
C  C96  1  0.28443596  0.85853210  0.16728283  1  0.299604  0  0.049666  0.142627  0  4.086937  0
C  C97  1  0.78441487  0.14146820  0.83271664  1  0.299686  0  0.049555  0.142509  0  4.08721  0
C  C98  1  0.11741994  0.82318284  0.17697845  1  0.052372  0  -0.039656  -0.203943  0  4.014304  0
C  C99  1  0.61740635  0.17682075  0.82302473  1  0.052029  0  -0.03966  -0.204036  0  4.01487  0
C  C100  1  0.94067459  0.83062226  0.15076606  1  0.460901  0  0.123616  0.152432  0  3.988102  0
C  C101  1  0.44066323  0.16938220  0.84923702  1  0.460534  0  0.123753  0.152853  0  3.986205  0
C  C102  1  0.91530016  0.88609614  0.13044532  1  0.501196  0  0.120842  0.159463  0  3.995394  0
C  C103  1  0.41528592  0.11390586  0.86955658  1  0.50134  0  0.120834  0.159724  0  3.995308  0
C  C104  1  0.08570731  0.91043440  0.11201320  1  0.031007  0  -0.048491  -0.168023  0  4.020632  0
C  C105  1  0.58569138  0.08956534  0.88798456  1  0.031227  0  -0.048474  -0.168027  0  4.020667  0
C  C106  1  0.11179081  0.72189699  0.28810983  1  0.971521  0  0.228948  0.229455  0  3.996292  0
C  C107  1  0.61177878  0.27811174  0.71189836  1  0.971387  0  0.228999  0.229476  0  3.99621  0
C  C108  1  0.11960022  0.78771177  0.21718707  1  0.890424  0  0.222592  0.253597  0  4.022648  0
C  C109  1  0.61957426  0.21229751  0.78281959  1  0.890227  0  0.222576  0.253672  0  4.022518  0
C  C110  1  0.25134726  0.64081761  0.33080724  1  -0.014605  0  -0.087446  -0.122539  0  3.982506  0
C  C111  1  0.75132544  0.35919204  0.66919992  1  -0.014863  0  -0.087499  -0.122684  0  3.982  0
C  C112  1  0.23548958  0.60411129  0.36718394  1  -0.012137  0  -0.078002  -0.074267  0  3.982386  0
C  C113  1  0.73547005  0.39589352  0.63281743  1  -0.011682  0  -0.077929  -0.074208  0  3.982071  0
C  C114  1  0.07036137  0.60575044  0.39915356  1  0.023943  0  -0.013496  -0.085082  0  3.924556  0
C  C115  1  0.57034546  0.39424824  0.60084534  1  0.023193  0  -0.013533  -0.085048  0  3.924111  0
C  C116  1  0.91874887  0.64637107  0.39297812  1  -0.111416  0  -0.003625  0.107371  0  3.919594  0
C  C117  1  0.41873403  0.35362752  0.60702453  1  -0.110706  0  -0.003564  0.107455  0  3.919542  0
C  C118  1  0.93233442  0.68338108  0.35655722  1  0.015263  0  -0.091844  -0.173811  0  3.964177  0
C  C119  1  0.43232024  0.31662472  0.64344778  1  0.015062  0  -0.091846  -0.173777  0  3.964354  0
C  C120  1  0.09904959  0.68121835  0.32530962  1  -0.016791  0  -0.002412  0.042413  0  3.998417  0
C  C121  1  0.59902490  0.31879014  0.67469741  1  -0.016755  0  -0.002495  0.04233  0  3.998286  0
C  C122  1  0.59075413  0.08557669  0.07061433  1  1.667551  0  0.272951  0.717311  0  4.159744  0
C  C123  1  0.09074107  0.91442066  0.92938074  1  1.667308  0  0.273106  0.717408  0  4.159277  0
C  C124  1  0.58593896  0.05517644  0.93023702  1  1.524588  0  0.254638  0.644609  0  4.095874  0
C  C125  1  0.08594108  0.94481732  0.06975995  1  1.523902  0  0.254619  0.644544  0  4.095922  0
C  C126  1  0.00535194  0.90170777  0.70763085  1  0.243467  0  -0.147593  -0.211147  0  4.012715  0
C  C127  1  0.50534534  0.09829375  0.29236838  1  0.243886  0  -0.14756  -0.211051  0  4.012714  0
C  C128  1  0.47979493  0.90595557  0.24223942  1  0.24865  0  -0.14473  -0.211299  0  3.934852  0
C  C129  1  0.97976193  0.09404118  0.75776136  1  0.248408  0  -0.144779  -0.211515  0  3.934924  0
C  C130  1  0.78943395  0.72872447  0.15339664  1  0.290435  0  -0.129418  -0.216629  0  3.968004  0
C  C131  1  0.28943585  0.27127976  0.84661246  1  0.290624  0  -0.129467  -0.216366  0  3.965609  0
C  C132  1  0.69346073  0.97375842  0.13427822  1  0.303597  0  -0.139467  -0.218464  0  3.929575  0
C  C133  1  0.19344082  0.02624047  0.86572040  1  0.303826  0  -0.139494  -0.218649  0  3.929487  0
Br  Br134  1  0.68967635  0.65913123  0.43503654  1  -0.054467  0  0.057466  -0.03836  0  1.459132  0
Br  Br135  1  0.18967002  0.34086452  0.56496399  1  -0.054549  0  0.057421  -0.038425  0  1.459162  0
Br  Br136  1  0.76003520  0.63202309  0.74185440  1  -0.152352  0  -0.019358  -0.127924  0  1.288018  0
Br  Br137  1  0.26002438  0.36796749  0.25813541  1  -0.152287  0  -0.019364  -0.127931  0  1.288066  0
Br  Br138  1  0.51043719  0.82424456  0.78900645  1  -0.141539  0  0.025772  -0.101252  0  1.507974  0
Br  Br139  1  0.01044146  0.17575613  0.21099510  1  -0.141526  0  0.025773  -0.101238  0  1.50797  0
N  N140  1  0.95781841  0.79108747  0.24829394  1  -0.547803  0  -0.159905  -0.156094  0  3.234024  0
N  N141  1  0.45779428  0.20892133  0.75171262  1  -0.547496  0  -0.159939  -0.156035  0  3.233954  0
N  N142  1  0.95415075  0.75729298  0.28342156  1  -0.564598  0  -0.157914  -0.146093  0  3.250529  0
N  N143  1  0.45412621  0.24271724  0.71658539  1  -0.564983  0  -0.157915  -0.146176  0  3.250581  0
N  N144  1  0.28253413  0.72529755  0.26293240  1  -0.577478  0  -0.162193  -0.15209  0  3.225349  0
N  N145  1  0.78252009  0.27470886  0.73707439  1  -0.578095  0  -0.162257  -0.15215  0  3.22548  0
N  N146  1  0.28663341  0.75827082  0.22681851  1  -0.574568  0  -0.165037  -0.168523  0  3.258268  0
N  N147  1  0.78661097  0.24173326  0.77318789  1  -0.573698  0  -0.164996  -0.168558  0  3.258355  0
N  N148  1  0.11936772  0.86206175  0.73416508  1  -1.07464  0  -0.496531  -0.364313  0  3.440752  0
N  N149  1  0.61936931  0.13793669  0.26583309  1  -1.074469  0  -0.49659  -0.364521  0  3.440632  0
N  N150  1  0.46273971  0.85854404  0.19546457  1  -1.141822  0  -0.470477  -0.339951  0  3.522255  0
N  N151  1  0.96272223  0.14145544  0.80453429  1  -1.14161  0  -0.470408  -0.33928  0  3.520646  0
N  N152  1  0.79350042  0.78915446  0.14202018  1  -1.237392  0  -0.420858  -0.243075  0  3.644159  0
N  N153  1  0.29348639  0.21084703  0.85798468  1  -1.237228  0  -0.420891  -0.238326  0  3.647576  0
N  N154  1  0.73269610  0.90947801  0.13225491  1  -1.260513  0  -0.430467  -0.244434  0  3.603724  0
N  N155  1  0.23268053  0.09052476  0.86774529  1  -1.260566  0  -0.430565  -0.244206  0  3.602542  0
O  O156  1  0.40645235  0.43831143  0.44290683  1  -1.233647  0  -0.2288  -0.580758  0  2.281873  0
O  O157  1  0.90643229  0.56167803  0.55709886  1  -1.233627  0  -0.228907  -0.580986  0  2.281256  0
O  O158  1  0.73942746  0.45004935  0.54804601  1  -1.254679  0  -0.231702  -0.588164  0  2.336747  0
O  O159  1  0.23943996  0.54994176  0.45194801  1  -1.254849  0  -0.231651  -0.588201  0  2.336917  0
O  O160  1  0.74124947  0.43648470  0.44414161  1  -1.243816  0  -0.229387  -0.580176  0  2.278262  0
O  O161  1  0.24122876  0.56352182  0.55584748  1  -1.244459  0  -0.229351  -0.580068  0  2.278673  0
O  O162  1  0.90727112  0.54780832  0.45230918  1  -1.251937  0  -0.230983  -0.592634  0  2.403005  0
O  O163  1  0.40726969  0.45219641  0.54769886  1  -1.2519  0  -0.230856  -0.592465  0  2.403841  0
O  O164  1  0.57535447  0.53616182  0.50200714  1  -1.447568  0  -0.451343  -0.983302  0  2.166756  0
O  O165  1  0.07535816  0.46383587  0.49799138  1  -1.447515  0  -0.451314  -0.983285  0  2.166618  0
O  O166  1  0.75393002  0.03992923  0.94539339  1  -1.267227  0  -0.248633  -0.607409  0  2.354135  0
O  O167  1  0.25394821  0.96006799  0.05460412  1  -1.266785  0  -0.248668  -0.607425  0  2.354075  0
O  O168  1  0.42151479  0.06719368  0.05466148  1  -1.224535  0  -0.228122  -0.579441  0  2.288462  0
O  O169  1  0.92150136  0.93280660  0.94533274  1  -1.224286  0  -0.228244  -0.579584  0  2.288365  0
O  O170  1  0.42268806  0.04609043  0.95135879  1  -1.274975  0  -0.24688  -0.611453  0  2.392664  0
O  O171  1  0.92269092  0.95390329  0.04863809  1  -1.274914  0  -0.246805  -0.611379  0  2.392516  0
O  O172  1  0.25564838  0.93245283  0.94909170  1  -1.241481  0  -0.23092  -0.588537  0  2.28421  0
O  O173  1  0.75565777  0.06754477  0.05090352  1  -1.241621  0  -0.230911  -0.588558  0  2.284552  0
O  O174  1  0.58711306  0.96426531  0.00099918  1  -1.39505  0  -0.445833  -0.983715  0  2.167698  0
O  O175  1  0.08711371  0.03573085  0.99899857  1  -1.395225  0  -0.445778  -0.983646  0  2.167742  0
