# generated using pymatgen
data_Cd3H38C60(N3O7)2
_symmetry_space_group_name_H-M   'P 1'
_cell_length_a   13.60301920
_cell_length_b   13.60305504
_cell_length_c   17.59817265
_cell_angle_alpha   92.39122187
_cell_angle_beta   92.39138669
_cell_angle_gamma   103.57292169
_symmetry_Int_Tables_number   1
_chemical_formula_structural   Cd3H38C60(N3O7)2
_chemical_formula_sum   'Cd6 H76 C120 N12 O28'
_cell_volume   3158.25814523
_cell_formula_units_Z   2
loop_
 _symmetry_equiv_pos_site_id
 _symmetry_equiv_pos_as_xyz
  1  'x, y, z'
loop_
 _atom_site_type_symbol
 _atom_site_label
 _atom_site_symmetry_multiplicity
 _atom_site_fract_x
 _atom_site_fract_y
 _atom_site_fract_z
 _atom_site_occupancy
 _atom_site_pbe_bader_charge
 _atom_site_pbe_bader_spin_density
 _atom_site_pbe_cm5_charge
 _atom_site_pbe_ddec_charge
 _atom_site_pbe_ddec_spin_density
 _atom_site_pbe_ddec_sum_bond_order
 _atom_site_pbe_magmom
Cd  Cd0  1  0.11562342  0.88437507  0.24999693  1  1.294398  0  0.783328  0.943016  0  2.141756  0
Cd  Cd1  1  0.88437442  0.11562482  0.74999899  1  1.294517  0  0.783336  0.943016  0  2.141752  0
Cd  Cd2  1  0.99860509  0.56842582  0.21739124  1  1.277536  0  0.767334  0.885798  0  2.177934  0
Cd  Cd3  1  0.43157266  0.00139631  0.28260855  1  1.277631  0  0.76731  0.885773  0  2.177978  0
Cd  Cd4  1  0.00139579  0.43157406  0.78260591  1  1.277603  0  0.767298  0.885773  0  2.177938  0
Cd  Cd5  1  0.56842521  0.99859920  0.71739180  1  1.277682  0  0.767314  0.885782  0  2.178007  0
H  H6  1  0.01850860  0.89692034  0.11542407  1  0.119564  0  0.104032  0.104458  0  1.052893  0
H  H7  1  0.10306942  0.98149762  0.38456681  1  0.119713  0  0.104065  0.104505  0  1.052928  0
H  H8  1  0.98149524  0.10306916  0.88456604  1  0.119646  0  0.104054  0.104497  0  1.05292  0
H  H9  1  0.89692616  0.01850762  0.61542977  1  0.119637  0  0.104038  0.104501  0  1.052862  0
H  H10  1  0.95704320  0.02951937  0.04684207  1  0.080349  0  0.107638  0.125588  0  1.003679  0
H  H11  1  0.97047354  0.04296418  0.45315430  1  0.080318  0  0.107581  0.125487  0  1.003724  0
H  H12  1  0.04296294  0.97047437  0.95315164  1  0.080372  0  0.107588  0.125493  0  1.00371  0
H  H13  1  0.02952278  0.95704344  0.54684124  1  0.080282  0  0.107639  0.125592  0  1.003654  0
H  H14  1  0.66494328  0.82560046  0.00496026  1  0.074448  0  0.108158  0.123972  0  1.005358  0
H  H15  1  0.17440333  0.33505477  0.49504407  1  0.074451  0  0.108107  0.123948  0  1.005374  0
H  H16  1  0.33505237  0.17440560  0.99504544  1  0.074477  0  0.108084  0.123954  0  1.005397  0
H  H17  1  0.82560139  0.66494679  0.50495892  1  0.0745  0  0.108121  0.12392  0  1.005373  0
H  H18  1  0.72281714  0.69684936  0.08308942  1  0.108261  0  0.104594  0.108586  0  0.998067  0
H  H19  1  0.30314977  0.27718408  0.41690881  1  0.108256  0  0.104623  0.108615  0  0.998012  0
H  H20  1  0.27718224  0.30315092  0.91690997  1  0.108255  0  0.104645  0.108647  0  0.998129  0
H  H21  1  0.69685419  0.72281510  0.58309579  1  0.108379  0  0.10462  0.108607  0  0.998009  0
H  H22  1  0.55541733  0.18551978  0.91183058  1  0.078135  0  0.102876  0.105212  0  1.010062  0
H  H23  1  0.81448012  0.44458721  0.58816771  1  0.078159  0  0.1029  0.10525  0  1.01  0
H  H24  1  0.44458508  0.81447974  0.08816888  1  0.078111  0  0.102882  0.105209  0  1.010047  0
H  H25  1  0.18552303  0.55542204  0.41182977  1  0.078188  0  0.102861  0.105247  0  1.010068  0
H  H26  1  0.48204618  0.16964052  0.04168808  1  0.082997  0  0.095915  0.09906  0  1.030665  0
H  H27  1  0.83036197  0.51795819  0.45831008  1  0.082977  0  0.095972  0.099114  0  1.030745  0
H  H28  1  0.51795623  0.83036120  0.95831087  1  0.083078  0  0.095938  0.099074  0  1.030691  0
H  H29  1  0.16964272  0.48205364  0.54168922  1  0.083251  0  0.095913  0.099106  0  1.030632  0
H  H30  1  0.69054874  0.99363475  0.10735589  1  0.124477  0  0.104278  0.122408  0  1.038712  0
H  H31  1  0.00636110  0.30945061  0.39264297  1  0.124492  0  0.104289  0.122435  0  1.038706  0
H  H32  1  0.30945293  0.00636756  0.89264589  1  0.124489  0  0.10426  0.122383  0  1.038773  0
H  H33  1  0.99363370  0.69055371  0.60735242  1  0.124454  0  0.104256  0.122378  0  1.038762  0
H  H34  1  0.93464941  0.19792281  0.25863500  1  0.102986  0  0.111352  0.12032  0  0.997559  0
H  H35  1  0.80208389  0.06535633  0.24136775  1  0.102097  0  0.111325  0.120314  0  0.997631  0
H  H36  1  0.06535075  0.80208061  0.74136677  1  0.102031  0  0.111381  0.12038  0  0.997609  0
H  H37  1  0.19792237  0.93464856  0.75863935  1  0.102929  0  0.111312  0.120308  0  0.997532  0
H  H38  1  0.07399035  0.32680743  0.21089695  1  0.113988  0  0.111168  0.121166  0  1.001118  0
H  H39  1  0.67319959  0.92601472  0.28910472  1  0.114091  0  0.111105  0.121118  0  1.001087  0
H  H40  1  0.92600451  0.67319841  0.78910417  1  0.114042  0  0.111103  0.12111  0  1.001076  0
H  H41  1  0.32680664  0.07398719  0.71089775  1  0.113983  0  0.111147  0.121186  0  1.001119  0
H  H42  1  0.22534808  0.27162532  0.15879434  1  0.076796  0  0.110532  0.114376  0  0.986661  0
H  H43  1  0.72838351  0.77465516  0.34120130  1  0.076961  0  0.110514  0.114377  0  0.986438  0
H  H44  1  0.77464980  0.72838564  0.84120587  1  0.076995  0  0.110558  0.114423  0  0.98653  0
H  H45  1  0.27162191  0.22534433  0.65879653  1  0.076884  0  0.110553  0.114379  0  0.986613  0
H  H46  1  0.23056402  0.08931647  0.16627669  1  0.120765  0  0.121937  0.100124  0  0.985973  0
H  H47  1  0.91069214  0.76944038  0.33371804  1  0.12076  0  0.121949  0.10012  0  0.985959  0
H  H48  1  0.76943612  0.91069428  0.83372245  1  0.120786  0  0.121917  0.100072  0  0.985885  0
H  H49  1  0.08931331  0.23056207  0.66628215  1  0.120777  0  0.121923  0.100079  0  0.985981  0
H  H50  1  0.23486109  0.67161737  0.20235934  1  0.152013  0  0.116981  0.094255  0  1.033966  0
H  H51  1  0.32839006  0.76513781  0.29763970  1  0.152239  0  0.116969  0.094291  0  1.03391  0
H  H52  1  0.76513980  0.32838179  0.79763949  1  0.151971  0  0.116957  0.094211  0  1.033972  0
H  H53  1  0.67161463  0.23485490  0.70236133  1  0.152157  0  0.116947  0.094191  0  1.033956  0
H  H54  1  0.38352362  0.65740461  0.12633441  1  0.098268  0  0.111463  0.11602  0  0.998223  0
H  H55  1  0.34260315  0.61647674  0.37366486  1  0.098334  0  0.111408  0.115982  0  0.998264  0
H  H56  1  0.61647574  0.34259049  0.87366199  1  0.098218  0  0.111461  0.116058  0  0.998324  0
H  H57  1  0.65740459  0.38351818  0.62633916  1  0.098336  0  0.111467  0.116058  0  0.998343  0
H  H58  1  0.35432509  0.52663350  0.01603224  1  0.060963  0  0.112005  0.106846  0  0.970759  0
H  H59  1  0.47336670  0.64567925  0.48397386  1  0.060936  0  0.111977  0.106806  0  0.970731  0
H  H60  1  0.64567126  0.47335723  0.98396736  1  0.060899  0  0.11199  0.106852  0  0.970771  0
H  H61  1  0.52663654  0.35432126  0.51603417  1  0.061053  0  0.111998  0.106828  0  0.970832  0
H  H62  1  0.18222132  0.41843136  0.98781575  1  0.125116  0  0.106721  0.118391  0  1.048465  0
H  H63  1  0.58156578  0.81778376  0.51219035  1  0.125342  0  0.106745  0.118417  0  1.048512  0
H  H64  1  0.81777431  0.58155849  0.01218779  1  0.125647  0  0.106764  0.118428  0  1.048436  0
H  H65  1  0.41843366  0.18221951  0.48781538  1  0.12514  0  0.106728  0.118397  0  1.048455  0
H  H66  1  0.04544389  0.31795666  0.98316901  1  0.084392  0  0.104489  0.108241  0  1.057788  0
H  H67  1  0.68205071  0.95456323  0.51683114  1  0.084666  0  0.104495  0.108219  0  1.057744  0
H  H68  1  0.95455399  0.68204106  0.01683196  1  0.084374  0  0.104501  0.108284  0  1.057831  0
H  H69  1  0.31795324  0.04544256  0.48317081  1  0.084296  0  0.104508  0.108274  0  1.057677  0
H  H70  1  0.86986451  0.21312904  0.97077344  1  0.138849  0  0.108545  0.116094  0  1.028105  0
H  H71  1  0.78687593  0.13014145  0.52922251  1  0.138898  0  0.108555  0.116155  0  1.028048  0
H  H72  1  0.13013186  0.78686906  0.02922751  1  0.138845  0  0.10853  0.116065  0  1.028207  0
H  H73  1  0.21312571  0.86986376  0.47077481  1  0.138871  0  0.108529  0.116085  0  1.028082  0
H  H74  1  0.74113239  0.25440567  0.05905116  1  0.082156  0  0.101594  0.102843  0  1.055143  0
H  H75  1  0.74559206  0.25887231  0.44094649  1  0.082325  0  0.101583  0.102826  0  1.055109  0
H  H76  1  0.25886703  0.74559024  0.94095379  1  0.082342  0  0.101622  0.102913  0  1.05513  0
H  H77  1  0.25440277  0.74113129  0.55905116  1  0.082087  0  0.101584  0.102792  0  1.055205  0
H  H78  1  0.79759991  0.40385317  0.15295099  1  0.092197  0  0.12391  0.097509  0  0.959523  0
H  H79  1  0.59614163  0.20239950  0.34704973  1  0.092159  0  0.12392  0.097505  0  0.959512  0
H  H80  1  0.20239952  0.59614201  0.84705450  1  0.092254  0  0.123932  0.097499  0  0.959542  0
H  H81  1  0.40385319  0.79759675  0.65294827  1  0.092258  0  0.123921  0.097506  0  0.959517  0
C  C82  1  0.90739256  0.71050695  0.14949993  1  1.517924  0  0.188839  0.552232  0  4.237178  0
C  C83  1  0.28948570  0.09260286  0.35049871  1  1.517651  0  0.188774  0.552098  0  4.237172  0
C  C84  1  0.09260226  0.28948488  0.85049739  1  1.517748  0  0.18877  0.55202  0  4.23717  0
C  C85  1  0.71051294  0.90739358  0.64950282  1  1.517754  0  0.188835  0.552224  0  4.237133  0
C  C86  1  0.87320740  0.78963125  0.10599650  1  0.039154  0  -0.028623  -0.059393  0  4.001212  0
C  C87  1  0.21036326  0.12679360  0.39399881  1  0.039116  0  -0.028635  -0.059286  0  4.001206  0
C  C88  1  0.12679269  0.21036402  0.89399765  1  0.038944  0  -0.028602  -0.059144  0  4.001088  0
C  C89  1  0.78963613  0.87320448  0.60600165  1  0.038989  0  -0.028603  -0.059183  0  4.001165  0
C  C90  1  0.93993250  0.88237586  0.09426389  1  -0.077951  0  -0.084715  -0.072917  0  3.977233  0
C  C91  1  0.11761588  0.06007333  0.40573259  1  -0.077949  0  -0.084774  -0.073068  0  3.97754  0
C  C92  1  0.06007063  0.11761719  0.90573199  1  -0.077912  0  -0.08477  -0.073096  0  3.977562  0
C  C93  1  0.88237895  0.93993028  0.59426562  1  -0.078064  0  -0.084724  -0.073043  0  3.977463  0
C  C94  1  0.90707167  0.95577923  0.05432136  1  0.030943  0  -0.100019  -0.193563  0  3.980328  0
C  C95  1  0.04421591  0.09293407  0.44567453  1  0.031057  0  -0.099954  -0.193453  0  3.980348  0
C  C96  1  0.09293296  0.04421710  0.94567295  1  0.03117  0  -0.099946  -0.193418  0  3.980409  0
C  C97  1  0.95578119  0.90707300  0.55432271  1  0.031202  0  -0.100062  -0.193637  0  3.980452  0
C  C98  1  0.80871396  0.93422418  0.02197835  1  0.346799  0  0.088719  0.262292  0  4.049608  0
C  C99  1  0.06577418  0.19129062  0.47802263  1  0.346898  0  0.088747  0.262428  0  4.049508  0
C  C100  1  0.19128998  0.06577645  0.97802231  1  0.346784  0  0.088704  0.262336  0  4.049608  0
C  C101  1  0.93422443  0.80871388  0.52197515  1  0.346675  0  0.088746  0.262238  0  4.049721  0
C  C102  1  0.74139463  0.84090218  0.03106030  1  0.027741  0  -0.097762  -0.195099  0  3.991705  0
C  C103  1  0.15909840  0.25860698  0.46894012  1  0.027718  0  -0.097707  -0.195104  0  3.991518  0
C  C104  1  0.25860628  0.15910068  0.96894091  1  0.027738  0  -0.097701  -0.195139  0  3.991662  0
C  C105  1  0.84090402  0.74139549  0.53105998  1  0.027756  0  -0.097677  -0.194985  0  3.991543  0
C  C106  1  0.77371543  0.76972186  0.07398113  1  -0.11054  0  -0.083731  -0.078578  0  3.994658  0
C  C107  1  0.23027807  0.22628301  0.42601588  1  -0.110518  0  -0.083774  -0.078636  0  3.994544  0
C  C108  1  0.22628242  0.23027951  0.92601540  1  -0.110572  0  -0.083797  -0.078714  0  3.994807  0
C  C109  1  0.76972513  0.77371672  0.57398758  1  -0.110623  0  -0.083833  -0.078703  0  3.994622  0
C  C110  1  0.70498113  0.04849160  0.99354267  1  0.439012  0  0.093756  0.246566  0  4.004709  0
C  C111  1  0.95150661  0.29502090  0.50645694  1  0.438925  0  0.093641  0.246498  0  4.005001  0
C  C112  1  0.29502130  0.95151087  0.00645857  1  0.43897  0  0.093717  0.246542  0  4.004777  0
C  C113  1  0.04849047  0.70498470  0.49353912  1  0.438664  0  0.093695  0.246357  0  4.004893  0
C  C114  1  0.66791420  0.10454844  0.93794350  1  -0.052577  0  -0.022344  -0.132672  0  3.929694  0
C  C115  1  0.89544987  0.33208648  0.56205542  1  -0.052414  0  -0.022268  -0.132565  0  3.929921  0
C  C116  1  0.33208670  0.89545146  0.06205592  1  -0.052579  0  -0.02233  -0.132665  0  3.929722  0
C  C117  1  0.10454645  0.66791380  0.43794104  1  -0.052565  0  -0.022371  -0.132751  0  3.929778  0
C  C118  1  0.71155960  0.12139544  0.86104080  1  1.610822  0  0.206778  0.591768  0  4.210805  0
C  C119  1  0.87860387  0.28844364  0.63895824  1  1.610802  0  0.206689  0.591703  0  4.211058  0
C  C120  1  0.28844206  0.87860538  0.13895924  1  1.610834  0  0.20676  0.5918  0  4.210775  0
C  C121  1  0.12139549  0.71156028  0.36103784  1  1.61089  0  0.206786  0.591821  0  4.210879  0
C  C122  1  0.58652763  0.14655830  0.95635640  1  0.016165  0  -0.085461  -0.083564  0  4.008861  0
C  C123  1  0.85344183  0.41347334  0.54364187  1  0.015731  0  -0.085457  -0.083541  0  4.008875  0
C  C124  1  0.41347328  0.85344308  0.04364420  1  0.016171  0  -0.085442  -0.083515  0  4.008895  0
C  C125  1  0.14655980  0.58653114  0.45635543  1  0.016098  0  -0.085412  -0.083521  0  4.008954  0
C  C126  1  0.54511203  0.13692155  0.02745175  1  -0.080344  0  -0.097729  -0.12975  0  4.010887  0
C  C127  1  0.86307943  0.45489178  0.47254589  1  -0.080197  0  -0.097743  -0.129853  0  4.01105  0
C  C128  1  0.45489039  0.86307945  0.97254888  1  -0.080736  0  -0.097702  -0.129735  0  4.010871  0
C  C129  1  0.13692221  0.54511638  0.52745209  1  -0.080675  0  -0.097706  -0.129757  0  4.011064  0
C  C130  1  0.58331982  0.08157988  0.08194665  1  0.00786  0  -0.01533  0.009893  0  3.983908  0
C  C131  1  0.91841829  0.41668044  0.41805147  1  0.00796  0  -0.015411  0.009862  0  3.983926  0
C  C132  1  0.41668109  0.91842150  0.91805395  1  0.008149  0  -0.015298  0.009901  0  3.983957  0
C  C133  1  0.08157878  0.58332441  0.58194287  1  0.007976  0  -0.0153  0.009844  0  3.984115  0
C  C134  1  0.53639947  0.06156102  0.15720757  1  1.563449  0  0.182933  0.551836  0  4.234072  0
C  C135  1  0.93844012  0.46359827  0.34279054  1  1.563756  0  0.182957  0.551867  0  4.233913  0
C  C136  1  0.46359992  0.93843853  0.84279294  1  1.564098  0  0.18288  0.551759  0  4.234101  0
C  C137  1  0.06156150  0.53640398  0.65720499  1  1.564125  0  0.182908  0.551825  0  4.234069  0
C  C138  1  0.66327988  0.03780423  0.06457223  1  -0.048558  0  -0.102929  -0.237773  0  3.98757  0
C  C139  1  0.96219485  0.33672001  0.43542718  1  -0.048565  0  -0.102927  -0.237807  0  3.987611  0
C  C140  1  0.33672179  0.96219733  0.93542896  1  -0.048558  0  -0.102948  -0.237802  0  3.987688  0
C  C141  1  0.03780299  0.66328503  0.56456889  1  -0.04853  0  -0.102903  -0.237651  0  3.98761  0
C  C142  1  0.00722604  0.07416850  0.23607659  1  0.496116  0  0.120697  0.16393  0  4.009348  0
C  C143  1  0.92583740  0.99277962  0.26392072  1  0.469965  0  0.120778  0.164087  0  4.009363  0
C  C144  1  0.99277488  0.92583657  0.76392525  1  0.470681  0  0.120814  0.164092  0  4.009471  0
C  C145  1  0.07416654  0.00722395  0.73608003  1  0.495754  0  0.120732  0.163975  0  4.009346  0
C  C146  1  0.99961297  0.17510181  0.23581989  1  0.002623  0  -0.076228  -0.149326  0  3.918447  0
C  C147  1  0.82490346  0.00039126  0.26418061  1  0.003091  0  -0.076214  -0.149426  0  3.91856  0
C  C148  1  0.00038568  0.82490273  0.76418301  1  0.003229  0  -0.076283  -0.14951  0  3.918722  0
C  C149  1  0.17510126  0.99961178  0.73582356  1  0.002467  0  -0.076148  -0.149263  0  3.918337  0
C  C150  1  0.07854442  0.24781692  0.20870495  1  -0.070583  0  -0.06327  -0.016374  0  3.941127  0
C  C151  1  0.75218984  0.92145896  0.29129391  1  -0.070252  0  -0.063173  -0.016249  0  3.940947  0
C  C152  1  0.92145422  0.75219128  0.79129578  1  -0.070368  0  -0.063228  -0.016279  0  3.941087  0
C  C153  1  0.24781638  0.07854221  0.70870854  1  -0.070537  0  -0.063234  -0.016429  0  3.941121  0
C  C154  1  0.16238630  0.21770153  0.18139312  1  0.007154  0  -0.078968  -0.124579  0  3.957078  0
C  C155  1  0.78230774  0.83761793  0.31860256  1  0.007123  0  -0.079012  -0.124642  0  3.956644  0
C  C156  1  0.83761308  0.78230831  0.81860654  1  0.007157  0  -0.079021  -0.124644  0  3.956677  0
C  C157  1  0.21769922  0.16238267  0.68139762  1  0.007221  0  -0.079063  -0.124614  0  3.956941  0
C  C158  1  0.16569460  0.11630753  0.18505948  1  0.492804  0  0.054512  0.114253  0  3.933647  0
C  C159  1  0.88370075  0.83430721  0.31493451  1  0.492844  0  0.054536  0.114217  0  3.933259  0
C  C160  1  0.83430630  0.88370193  0.81493907  1  0.492738  0  0.054508  0.114286  0  3.933183  0
C  C161  1  0.11630695  0.16569430  0.68506459  1  0.492765  0  0.05449  0.114204  0  3.933412  0
C  C162  1  0.22782476  0.61518576  0.15542887  1  0.500185  0  0.054026  0.114697  0  3.921194  0
C  C163  1  0.38482117  0.77217650  0.34457197  1  0.500336  0  0.054091  0.114735  0  3.921051  0
C  C164  1  0.77217614  0.38481194  0.84457162  1  0.500189  0  0.054017  0.114777  0  3.921215  0
C  C165  1  0.61518353  0.22782064  0.65543032  1  0.500169  0  0.054087  0.114859  0  3.92103  0
C  C166  1  0.30959358  0.60691033  0.11252099  1  -0.041083  0  -0.081267  -0.128666  0  3.976073  0
C  C167  1  0.39309718  0.69040778  0.38748055  1  -0.040726  0  -0.081169  -0.128646  0  3.975992  0
C  C168  1  0.69040428  0.39308443  0.88747763  1  -0.040627  0  -0.081313  -0.128834  0  3.976264  0
C  C169  1  0.60690905  0.30959194  0.61252357  1  -0.041363  0  -0.08125  -0.128822  0  3.976225  0
C  C170  1  0.29294594  0.53442559  0.05207254  1  -0.049193  0  -0.066039  -0.030169  0  3.991459  0
C  C171  1  0.46557878  0.70705858  0.44793133  1  -0.049525  0  -0.06601  -0.029996  0  3.991365  0
C  C172  1  0.70705118  0.46556680  0.94792770  1  -0.049541  0  -0.066032  -0.030142  0  3.991433  0
C  C173  1  0.53442520  0.29294135  0.55207443  1  -0.048865  0  -0.066042  -0.030002  0  3.991468  0
C  C174  1  0.19637533  0.47231985  0.03686943  1  -0.016133  0  -0.079954  -0.155424  0  3.925795  0
C  C175  1  0.52768202  0.80362960  0.46313548  1  -0.016537  0  -0.080066  -0.155662  0  3.92596  0
C  C176  1  0.80362180  0.52767110  0.96313361  1  -0.017103  0  -0.079964  -0.155437  0  3.925824  0
C  C177  1  0.47231969  0.19637126  0.53687024  1  -0.016122  0  -0.080028  -0.15561  0  3.925907  0
C  C178  1  0.11849485  0.48309718  0.08398374  1  0.484897  0  0.121778  0.168529  0  3.984537  0
C  C179  1  0.51690613  0.88150703  0.41601818  1  0.485018  0  0.121746  0.168503  0  3.984333  0
C  C180  1  0.88150305  0.51689615  0.91601881  1  0.485554  0  0.12177  0.168558  0  3.984501  0
C  C181  1  0.48309480  0.11848997  0.58398627  1  0.484802  0  0.121817  0.168529  0  3.984445  0
C  C182  1  0.01435386  0.41729050  0.07366697  1  0.476431  0  0.118274  0.158219  0  4.010075  0
C  C183  1  0.58271322  0.98564979  0.42633611  1  0.476256  0  0.118315  0.158281  0  4.009836  0
C  C184  1  0.98564555  0.58270613  0.92633629  1  0.476266  0  0.118268  0.158102  0  4.010029  0
C  C185  1  0.41728695  0.01434996  0.57366727  1  0.476565  0  0.118293  0.158282  0  4.010014  0
C  C186  1  0.98889243  0.33562140  0.01973019  1  -0.030079  0  -0.081268  -0.148952  0  3.917134  0
C  C187  1  0.66438351  0.01111268  0.48027013  1  -0.030273  0  -0.081267  -0.148822  0  3.917083  0
C  C188  1  0.01110547  0.66437488  0.98027359  1  -0.030203  0  -0.081256  -0.148965  0  3.917295  0
C  C189  1  0.33561741  0.98889019  0.51973221  1  -0.029907  0  -0.081257  -0.148933  0  3.917104  0
C  C190  1  0.89030371  0.27598284  0.01352344  1  -0.038059  0  -0.066267  -0.015973  0  3.919268  0
C  C191  1  0.72402238  0.10970408  0.48647465  1  -0.038629  0  -0.066314  -0.016225  0  3.919433  0
C  C192  1  0.10969494  0.72401434  0.98647982  1  -0.038049  0  -0.066288  -0.015948  0  3.919507  0
C  C193  1  0.27597851  0.89030023  0.51352432  1  -0.038494  0  -0.066291  -0.016062  0  3.919291  0
C  C194  1  0.81910096  0.29893097  0.06190487  1  -0.031955  0  -0.083288  -0.126845  0  3.962035  0
C  C195  1  0.70106864  0.18090366  0.43809457  1  -0.031697  0  -0.083262  -0.126714  0  3.961971  0
C  C196  1  0.18090074  0.70106548  0.93810015  1  -0.031747  0  -0.083371  -0.126997  0  3.962204  0
C  C197  1  0.29892846  0.81909755  0.56190421  1  -0.031527  0  -0.08325  -0.126705  0  3.961977  0
C  C198  1  0.84998898  0.38139185  0.11419770  1  0.546635  0  0.054172  0.105578  0  3.953672  0
C  C199  1  0.61860440  0.15001271  0.38580265  1  0.54653  0  0.054194  0.105584  0  3.953639  0
C  C200  1  0.15001272  0.61860460  0.88580733  1  0.546334  0  0.054227  0.105687  0  3.953672  0
C  C201  1  0.38139119  0.84998520  0.61419657  1  0.546398  0  0.054139  0.10558  0  3.953716  0
N  N202  1  0.09044967  0.04675354  0.21231413  1  -1.22595  0  -0.318982  -0.288786  0  3.488144  0
N  N203  1  0.95325407  0.90955389  0.28767875  1  -1.225947  0  -0.319011  -0.288714  0  3.488234  0
N  N204  1  0.90955349  0.95325350  0.78768385  1  -1.226116  0  -0.318988  -0.2888  0  3.488414  0
N  N205  1  0.04675136  0.09044928  0.71232033  1  -1.226065  0  -0.31893  -0.288642  0  3.488185  0
N  N206  1  0.13548953  0.55432815  0.14185610  1  -1.225561  0  -0.318413  -0.264347  0  3.467856  0
N  N207  1  0.44567556  0.86451187  0.35814406  1  -1.225821  0  -0.318445  -0.264359  0  3.467719  0
N  N208  1  0.86451214  0.44566827  0.85814552  1  -1.225664  0  -0.318371  -0.264331  0  3.46789  0
N  N209  1  0.55432536  0.13548584  0.64185814  1  -1.225793  0  -0.318476  -0.264387  0  3.467785  0
N  N210  1  0.94469898  0.43871550  0.11973704  1  -1.229998  0  -0.322846  -0.273893  0  3.514859  0
N  N211  1  0.56128401  0.05530352  0.38026346  1  -1.229692  0  -0.322855  -0.273917  0  3.514778  0
N  N212  1  0.05530271  0.56128019  0.88026626  1  -1.230075  0  -0.322824  -0.273841  0  3.51468  0
N  N213  1  0.43871386  0.94469419  0.61973638  1  -1.230001  0  -0.322797  -0.27391  0  3.514824  0
O  O214  1  0.99534960  0.73405311  0.18563821  1  -1.167318  0  -0.33639  -0.575397  0  2.320209  0
O  O215  1  0.26593404  0.00464242  0.31435911  1  -1.167317  0  -0.336344  -0.575407  0  2.320125  0
O  O216  1  0.00464446  0.26593633  0.81435845  1  -1.167337  0  -0.336314  -0.575342  0  2.320255  0
O  O217  1  0.73405776  0.99535459  0.68563884  1  -1.16723  0  -0.33635  -0.575423  0  2.320222  0
O  O218  1  0.85161019  0.62188805  0.14746189  1  -1.155717  0  -0.33025  -0.554915  0  2.149636  0
O  O219  1  0.37810936  0.14837668  0.35253440  1  -1.155467  0  -0.330204  -0.554796  0  2.149686  0
O  O220  1  0.14837931  0.37810986  0.85253261  1  -1.155467  0  -0.330255  -0.554848  0  2.149527  0
O  O221  1  0.62189229  0.85161237  0.64746587  1  -1.15558  0  -0.330257  -0.55492  0  2.14965  0
O  O222  1  0.78399121  0.00571665  0.97594182  1  -1.104934  0  -0.145928  -0.205494  0  2.621256  0
O  O223  1  0.99428401  0.21601350  0.52405921  1  -1.1051  0  -0.145843  -0.2055  0  2.621472  0
O  O224  1  0.21601274  0.99428692  0.02406007  1  -1.10498  0  -0.145833  -0.205398  0  2.62146  0
O  O225  1  0.00571535  0.78399337  0.47593695  1  -1.104811  0  -0.145861  -0.205254  0  2.621363  0
O  O226  1  0.65503057  0.13682581  0.80609824  1  -1.196007  0  -0.331991  -0.579705  0  2.272468  0
O  O227  1  0.86317224  0.34497202  0.69390010  1  -1.19606  0  -0.331933  -0.579642  0  2.272489  0
O  O228  1  0.34497109  0.86317575  0.19390238  1  -1.196036  0  -0.331953  -0.579723  0  2.2725  0
O  O229  1  0.13683167  0.65503373  0.30609787  1  -1.196203  0  -0.331968  -0.579704  0  2.272579  0
O  O230  1  0.80562509  0.12209493  0.85754506  1  -1.1529  0  -0.324552  -0.552279  0  2.341571  0
O  O231  1  0.87790568  0.19437761  0.64245467  1  -1.152808  0  -0.324568  -0.552342  0  2.341737  0
O  O232  1  0.19437505  0.87790332  0.14245429  1  -1.152866  0  -0.324596  -0.552331  0  2.34161  0
O  O233  1  0.12209368  0.80562485  0.35754251  1  -1.152836  0  -0.32457  -0.552317  0  2.341582  0
O  O234  1  0.45801848  0.09451270  0.17112530  1  -1.16044  0  -0.346494  -0.560613  0  2.13641  0
O  O235  1  0.90548841  0.54197867  0.32887096  1  -1.160513  0  -0.346466  -0.560602  0  2.136396  0
O  O236  1  0.54198166  0.90548702  0.82887466  1  -1.161045  0  -0.346493  -0.560582  0  2.136422  0
O  O237  1  0.09451776  0.45802465  0.67112473  1  -1.160799  0  -0.346495  -0.560634  0  2.136423  0
O  O238  1  0.57489261  0.00896949  0.20305849  1  -1.169459  0  -0.340676  -0.567577  0  2.170089  0
O  O239  1  0.99103373  0.42510414  0.29694145  1  -1.169605  0  -0.340688  -0.567578  0  2.169957  0
O  O240  1  0.42510526  0.99102896  0.79694137  1  -1.169477  0  -0.340651  -0.567547  0  2.170089  0
O  O241  1  0.00896715  0.57489354  0.70305620  1  -1.169474  0  -0.340695  -0.567583  0  2.170107  0
