# generated using pymatgen
data_ZnH28C30N(ClO2)2
_symmetry_space_group_name_H-M   'P 1'
_cell_length_a   16.62450145
_cell_length_b   17.81140293
_cell_length_c   17.62686849
_cell_angle_alpha   90.45613606
_cell_angle_beta   95.07717541
_cell_angle_gamma   92.06470713
_symmetry_Int_Tables_number   1
_chemical_formula_structural   ZnH28C30N(ClO2)2
_chemical_formula_sum   'Zn2 H56 C60 N2 Cl4 O8'
_cell_volume   5195.23603206
_cell_formula_units_Z   2
loop_
 _symmetry_equiv_pos_site_id
 _symmetry_equiv_pos_as_xyz
  1  'x, y, z'
loop_
 _atom_site_type_symbol
 _atom_site_label
 _atom_site_symmetry_multiplicity
 _atom_site_fract_x
 _atom_site_fract_y
 _atom_site_fract_z
 _atom_site_occupancy
 _atom_site_pbe_bader_charge
 _atom_site_pbe_bader_spin_density
 _atom_site_pbe_cm5_charge
 _atom_site_pbe_ddec_charge
 _atom_site_pbe_ddec_spin_density
 _atom_site_pbe_ddec_sum_bond_order
 _atom_site_pbe_magmom
Zn  Zn0  1  0.58909796  0.50301469  0.50298622  1  1.303116  0  0.679398  0.850896  0  2.285558  0
Zn  Zn1  1  0.40722355  0.49745614  0.49674203  1  1.309074  0  0.681096  0.852559  0  2.323916  0
H  H2  1  0.99023871  0.49460319  0.41250663  1  0.056923  0  0.109278  0.109149  0  0.982104  0
H  H3  1  0.00615607  0.50534660  0.58693974  1  0.06432  0  0.109495  0.109421  0  0.983584  0
H  H4  1  0.55828354  0.57197031  0.99843781  1  0.062543  0  0.10176  0.099701  0  0.995391  0
H  H5  1  0.45198875  0.42849145  0.00214727  1  0.025664  0  0.101241  0.098201  0  0.997452  0
H  H6  1  0.63461794  0.26767413  0.53648276  1  0.090732  0  0.108359  0.12767  0  1.010395  0
H  H7  1  0.37533291  0.25940750  0.50599921  1  0.108078  0  0.10881  0.128559  0  1.007226  0
H  H8  1  0.63321779  0.74142289  0.48396434  1  0.109143  0  0.108485  0.128145  0  1.008378  0
H  H9  1  0.37395599  0.73321607  0.47343164  1  0.106242  0  0.109522  0.128743  0  1.004803  0
H  H10  1  0.27014485  0.33077361  0.43364184  1  0.043344  0  0.099324  0.141431  0  0.982431  0
H  H11  1  0.34018822  0.39820412  0.40224652  1  0.133292  0  0.103237  0.162103  0  1.03521  0
H  H12  1  0.24761878  0.37697921  0.34659144  1  0.016278  0  0.094644  0.129499  0  1.012274  0
H  H13  1  0.11428342  0.38798334  0.33037796  1  0.050544  0  0.097708  0.13144  0  0.988496  0
H  H14  1  0.03814486  0.38541409  0.39495093  1  0.037568  0  0.089929  0.11944  0  1.046993  0
H  H15  1  0.12220201  0.32741735  0.40914582  1  0.04789  0  0.099376  0.135877  0  0.98392  0
H  H16  1  0.30082103  0.65618499  0.55477294  1  0.03315  0  0.100094  0.146629  0  0.991446  0
H  H17  1  0.35017918  0.58008715  0.59963649  1  0.11709  0  0.103541  0.161675  0  1.030568  0
H  H18  1  0.25957468  0.61241700  0.63316214  1  0.016505  0  0.09471  0.132259  0  0.99935  0
H  H19  1  0.11502458  0.61418979  0.61731641  1  0.028064  0  0.093425  0.123501  0  0.995308  0
H  H20  1  0.05984100  0.63055866  0.52859861  1  0.048704  0  0.091388  0.125984  0  1.022462  0
H  H21  1  0.15801991  0.67225744  0.54987046  1  0.058404  0  0.098344  0.13658  0  0.990556  0
H  H22  1  0.84012674  0.32552991  0.45462492  1  0.052829  0  0.097938  0.136534  0  0.992211  0
H  H23  1  0.93772858  0.36891385  0.47430717  1  0.035471  0  0.091131  0.125247  0  1.023059  0
H  H24  1  0.88162557  0.38255577  0.38551345  1  0.018829  0  0.093831  0.124047  0  0.994156  0
H  H25  1  0.73544417  0.37968393  0.37267175  1  0.042777  0  0.094649  0.133448  0  0.996642  0
H  H26  1  0.64490304  0.41051730  0.40703078  1  0.14284  0  0.103363  0.165362  0  1.04765  0
H  H27  1  0.69990410  0.33880408  0.45493944  1  0.058676  0  0.097796  0.142137  0  1.000269  0
H  H28  1  0.87896878  0.67469117  0.58166424  1  0.057498  0  0.099213  0.134631  0  0.984799  0
H  H29  1  0.95830386  0.61337181  0.60609843  1  0.026231  0  0.089744  0.119033  0  1.046532  0
H  H30  1  0.87657706  0.61940666  0.66399382  1  0.03522  0  0.097661  0.131717  0  0.989296  0
H  H31  1  0.74115448  0.62556810  0.64686367  1  0.019356  0  0.096945  0.134402  0  1.003137  0
H  H32  1  0.65550700  0.61430290  0.57993247  1  0.135342  0  0.102059  0.160789  0  1.044159  0
H  H33  1  0.73830243  0.67487168  0.56042840  1  0.043957  0  0.09735  0.136546  0  0.988768  0
H  H34  1  0.69564419  0.54511830  0.73171124  1  0.030312  0  0.08609  0.117954  0  1.017653  0
H  H35  1  0.65726544  0.46115369  0.68630158  1  0.082392  0  0.092629  0.141647  0  1.015319  0
H  H36  1  0.70688375  0.45880550  0.77994616  1  0.029119  0  0.084296  0.112779  0  1.019035  0
H  H37  1  0.69743952  0.46073729  0.91085417  1  0.043882  0  0.09136  0.122869  0  0.991052  0
H  H38  1  0.66562726  0.54058428  0.95802017  1  0.03641  0  0.087331  0.117642  0  1.040995  0
H  H39  1  0.71404774  0.55103049  0.87285788  1  0.032562  0  0.089032  0.121538  0  1.005608  0
H  H40  1  0.32002196  0.43386141  0.77215755  1  0.008202  0  0.083416  0.113015  0  1.026397  0
H  H41  1  0.36290022  0.42330982  0.68385166  1  0.075094  0  0.09353  0.143087  0  1.013295  0
H  H42  1  0.32293624  0.50941956  0.70769745  1  0.032017  0  0.087022  0.12239  0  1.019391  0
H  H43  1  0.31848037  0.53190911  0.84927253  1  0.03874  0  0.088178  0.121952  0  1.005046  0
H  H44  1  0.37357587  0.53617574  0.94030749  1  0.03349  0  0.088029  0.123231  0  1.033476  0
H  H45  1  0.33746814  0.44863954  0.90044092  1  0.011226  0  0.087129  0.114096  0  1.005168  0
H  H46  1  0.66578212  0.55999606  0.11329316  1  0.024784  0  0.08729  0.114732  0  1.001328  0
H  H47  1  0.63660547  0.47277067  0.06842111  1  0.049372  0  0.086742  0.119808  0  1.038011  0
H  H48  1  0.68608865  0.47557077  0.16200844  1  0.031483  0  0.087614  0.120812  0  1.007333  0
H  H49  1  0.67251078  0.48652215  0.29624127  1  0.046898  0  0.087626  0.122826  0  1.013173  0
H  H50  1  0.62622342  0.56436855  0.33409331  1  0.088109  0  0.092053  0.140179  0  1.017561  0
H  H51  1  0.67299973  0.57303946  0.24755011  1  0.017639  0  0.08461  0.114667  0  1.014572  0
H  H52  1  0.29051961  0.44269535  0.11809827  1  0.031599  0  0.089103  0.121886  0  1.005193  0
H  H53  1  0.34413407  0.45138747  0.03610648  1  0.001515  0  0.086992  0.11548  0  1.051695  0
H  H54  1  0.30637682  0.53181067  0.07717055  1  0.03785  0  0.091659  0.123426  0  0.989357  0
H  H55  1  0.28525022  0.53065414  0.20370580  1  0.024344  0  0.084302  0.114417  0  1.026611  0
H  H56  1  0.33006815  0.54450137  0.29852840  1  0.088532  0  0.093065  0.145256  0  1.023717  0
H  H57  1  0.30130574  0.45334282  0.26484266  1  0.028262  0  0.08593  0.118716  0  1.021697  0
C  C58  1  0.50500876  0.50097032  0.64699696  1  1.54341  0  0.217273  0.602046  0  4.136356  0
C  C59  1  0.50307986  0.64512019  0.48504285  1  1.598817  0  0.217464  0.589612  0  4.175492  0
C  C60  1  0.48298472  0.49947823  0.35276239  1  1.551956  0  0.217949  0.604911  0  4.129693  0
C  C61  1  0.50489693  0.35578446  0.51464800  1  1.579383  0  0.216391  0.589108  0  4.17353  0
C  C62  1  0.24130286  0.54821829  0.52930283  1  0.456973  0  0.122215  0.262135  0  3.920222  0
C  C63  1  0.15685266  0.55455681  0.52061915  1  0.010462  0  -0.009673  0.015502  0  3.918621  0
C  C64  1  0.10997831  0.49979775  0.47657292  1  0.002064  0  0.001369  0.030158  0  3.995605  0
C  C65  1  0.14951630  0.44419211  0.43820765  1  -0.058899  0  -0.010856  0.013664  0  3.925743  0
C  C66  1  0.23439909  0.44434428  0.44589610  1  0.528141  0  0.122661  0.261844  0  3.92543  0
C  C67  1  0.02085048  0.49890168  0.47001113  1  -0.038312  0  -0.079293  -0.109836  0  3.97531  0
C  C68  1  0.97554699  0.50120933  0.52942948  1  -0.068331  0  -0.078547  -0.109283  0  3.974861  0
C  C69  1  0.84681294  0.55747099  0.55865780  1  0.06787  0  -0.010849  0.013222  0  3.926071  0
C  C70  1  0.88638257  0.50030382  0.52271424  1  -0.016615  0  0.002185  0.033124  0  3.992261  0
C  C71  1  0.83961725  0.44399985  0.48081149  1  -0.032612  0  -0.010119  0.013999  0  3.918505  0
C  C72  1  0.75501535  0.44937927  0.47269291  1  0.532188  0  0.12214  0.263079  0  3.92048  0
C  C73  1  0.76197761  0.55818816  0.54949305  1  0.434221  0  0.122587  0.261888  0  3.923784  0
C  C74  1  0.51024263  0.49300810  0.73248840  1  -0.044622  0  -0.024308  -0.16869  0  3.899817  0
C  C75  1  0.43847979  0.48566424  0.77054039  1  0.012578  0  -0.004728  0.105349  0  3.90949  0
C  C76  1  0.44216999  0.49841191  0.84988244  1  -0.018226  0  -0.018432  0.043624  0  3.925715  0
C  C77  1  0.51766972  0.51007767  0.89263482  1  -0.043814  0  -0.014499  0.001395  0  3.992424  0
C  C78  1  0.58960492  0.50868648  0.85555597  1  -0.014082  0  -0.01939  0.042204  0  3.936516  0
C  C79  1  0.58637584  0.49905242  0.77599026  1  0.017343  0  -0.00633  0.102504  0  3.922593  0
C  C80  1  0.52284576  0.52238186  0.97601615  1  -0.114148  0  -0.088653  -0.116273  0  3.988406  0
C  C81  1  0.48709579  0.47787198  0.02554609  1  0.018711  0  -0.086258  -0.109871  0  3.986477  0
C  C82  1  0.41276487  0.48926113  0.14089747  1  -0.007856  0  -0.019578  0.042441  0  3.934382  0
C  C83  1  0.48770028  0.49008135  0.10860326  1  -0.051498  0  -0.014033  0.000283  0  3.992113  0
C  C84  1  0.56024964  0.50357635  0.15565686  1  0.019985  0  -0.01876  0.044586  0  3.925854  0
C  C85  1  0.55790528  0.51363978  0.23480372  1  -0.004314  0  -0.00523  0.103386  0  3.919312  0
C  C86  1  0.48311697  0.50677424  0.26760321  1  -0.031649  0  -0.024041  -0.166464  0  3.903314  0
C  C87  1  0.40973499  0.50055721  0.21972721  1  -0.007409  0  -0.007584  0.101595  0  3.919025  0
C  C88  1  0.50500983  0.27153740  0.51949224  1  0.030094  0  -0.008449  0.015878  0  3.958257  0
C  C89  1  0.57809997  0.23475951  0.52816191  1  0.055864  0  -0.092414  -0.178037  0  3.979475  0
C  C90  1  0.57787509  0.15685967  0.52468074  1  0.066975  0  0.02205  0.127637  0  4.006038  0
C  C91  1  0.50477031  0.11283928  0.51366116  1  0.184441  0  -0.008322  0.018671  0  4.07426  0
C  C92  1  0.43167609  0.15209238  0.50937431  1  -0.018217  0  0.021936  0.126059  0  4.0071  0
C  C93  1  0.43170159  0.22996962  0.51147998  1  0.055239  0  -0.091965  -0.1727  0  3.973254  0
C  C94  1  0.50471833  0.03435624  0.50533069  1  0.160503  0  -0.046116  -0.075012  0  4.145112  0
C  C95  1  0.50460988  0.96644129  0.49546424  1  -0.399988  0  -0.045689  -0.07417  0  4.14416  0
C  C96  1  0.50423203  0.88797858  0.48681391  1  0.124287  0  -0.007885  0.019321  0  4.072971  0
C  C97  1  0.57707111  0.84867317  0.48705120  1  -0.026697  0  0.021866  0.125879  0  4.006696  0
C  C98  1  0.57690710  0.77076887  0.48319102  1  0.113407  0  -0.091831  -0.174762  0  3.970604  0
C  C99  1  0.50363160  0.72932979  0.48020462  1  -0.028745  0  -0.007559  0.018933  0  3.95775  0
C  C100  1  0.43053880  0.76616641  0.47703914  1  0.066009  0  -0.09223  -0.175982  0  3.978588  0
C  C101  1  0.43090627  0.84403338  0.47944509  1  0.046503  0  0.021375  0.126652  0  4.009064  0
C  C102  1  0.27597877  0.38512723  0.40482502  1  -0.066884  0  -0.237541  -0.448247  0  3.942376  0
C  C103  1  0.10331440  0.38349710  0.39089086  1  -0.058963  0  -0.234376  -0.391595  0  3.98284  0
C  C104  1  0.29088960  0.60173213  0.58209057  1  -0.036109  0  -0.240341  -0.454381  0  3.943222  0
C  C105  1  0.12032799  0.62114899  0.55589999  1  -0.05344  0  -0.237455  -0.399175  0  3.99775  0
C  C106  1  0.87686641  0.37691435  0.44718344  1  -0.042699  0  -0.237391  -0.398346  0  3.997483  0
C  C107  1  0.70562598  0.39203094  0.42428929  1  -0.117528  0  -0.242872  -0.459469  0  3.944309  0
C  C108  1  0.89290062  0.61899418  0.60484993  1  -0.047766  0  -0.234  -0.390298  0  3.98131  0
C  C109  1  0.72109590  0.62098559  0.58584905  1  -0.065966  0  -0.23885  -0.447143  0  3.938773  0
C  C110  1  0.66546654  0.49040560  0.74125013  1  -0.091101  0  -0.245845  -0.399355  0  3.984193  0
C  C111  1  0.67057129  0.51599499  0.90156162  1  -0.067241  0  -0.24064  -0.394378  0  3.998839  0
C  C112  1  0.35685797  0.46178040  0.73132231  1  -0.037663  0  -0.248774  -0.404167  0  3.985232  0
C  C113  1  0.36403000  0.50402742  0.88693665  1  -0.055106  0  -0.244705  -0.402252  0  4.01193  0
C  C114  1  0.64121921  0.50289727  0.12308559  1  -0.080894  0  -0.243659  -0.398541  0  4.00984  0
C  C115  1  0.63628638  0.53556498  0.28100550  1  -0.093075  0  -0.246768  -0.401883  0  3.978383  0
C  C116  1  0.33476964  0.47793578  0.09063231  1  -0.047724  0  -0.241039  -0.395202  0  3.999457  0
C  C117  1  0.32731284  0.50790736  0.24840077  1  -0.072083  0  -0.249713  -0.408612  0  3.982672  0
N  N118  1  0.27901885  0.49485423  0.49165385  1  -1.229415  0  -0.30917  -0.314486  0  3.398087  0
N  N119  1  0.71729510  0.50515657  0.50695099  1  -1.23974  0  -0.308602  -0.316346  0  3.396229  0
Cl  Cl120  1  0.34067665  0.10157264  0.49946354  1  -0.205845  0  -0.021518  -0.090492  0  1.470413  0
Cl  Cl121  1  0.66867901  0.11218985  0.53232769  1  -0.203243  0  -0.021793  -0.090907  0  1.468144  0
Cl  Cl122  1  0.34019551  0.88872014  0.47548449  1  -0.208248  0  -0.021304  -0.090692  0  1.471585  0
Cl  Cl123  1  0.66812468  0.89916198  0.49405373  1  -0.205675  0  -0.021641  -0.090771  0  1.468364  0
O  O124  1  0.56708019  0.52556259  0.61581422  1  -1.173681  0  -0.315319  -0.552995  0  2.363954  0
O  O125  1  0.43664003  0.48656253  0.60984806  1  -1.174546  0  -0.312369  -0.543187  0  2.430084  0
O  O126  1  0.43800727  0.61333367  0.50254163  1  -1.170479  0  -0.307943  -0.542723  0  2.359446  0
O  O127  1  0.56847587  0.61342056  0.47317946  1  -1.170809  0  -0.313882  -0.548599  0  2.339257  0
O  O128  1  0.41837528  0.51230975  0.38400667  1  -1.168834  0  -0.311605  -0.537326  0  2.38981  0
O  O129  1  0.54694603  0.47698741  0.38984659  1  -1.185036  0  -0.314599  -0.558539  0  2.39099  0
O  O130  1  0.57223204  0.39123100  0.53062726  1  -1.169366  0  -0.31245  -0.540283  0  2.329511  0
O  O131  1  0.43769794  0.38387025  0.49322857  1  -1.171759  0  -0.30955  -0.546979  0  2.365294  0
