# generated using pymatgen
data_Zr3H4C25Cl11O16
_symmetry_space_group_name_H-M   'P 1'
_cell_length_a   15.04731724
_cell_length_b   15.03000223
_cell_length_c   15.02763493
_cell_angle_alpha   59.90022647
_cell_angle_beta   59.94761534
_cell_angle_gamma   59.93378514
_symmetry_Int_Tables_number   1
_chemical_formula_structural   Zr3H4C25Cl11O16
_chemical_formula_sum   'Zr6 H8 C50 Cl22 O32'
_cell_volume   2399.25242876
_cell_formula_units_Z   2
loop_
 _symmetry_equiv_pos_site_id
 _symmetry_equiv_pos_as_xyz
  1  'x, y, z'
loop_
 _atom_site_type_symbol
 _atom_site_label
 _atom_site_symmetry_multiplicity
 _atom_site_fract_x
 _atom_site_fract_y
 _atom_site_fract_z
 _atom_site_occupancy
 _atom_site_pbe_bader_charge
 _atom_site_pbe_bader_spin_density
 _atom_site_pbe_cm5_charge
 _atom_site_pbe_ddec_charge
 _atom_site_pbe_ddec_spin_density
 _atom_site_pbe_ddec_sum_bond_order
 _atom_site_pbe_magmom
Zr  Zr0  1  0.88159680  0.88189455  0.61798332  1  2.638751  0  1.617214  2.383808  0  2.702938  0
Zr  Zr1  1  0.11676675  0.11853830  0.38157717  1  2.637724  0  1.622485  2.391825  0  2.71099  0
Zr  Zr2  1  0.11701053  0.88254833  0.61752876  1  2.634863  0  1.622861  2.391919  0  2.711419  0
Zr  Zr3  1  0.88141587  0.11868600  0.38118515  1  2.640512  0  1.61696  2.384054  0  2.701676  0
Zr  Zr4  1  0.11697225  0.88266422  0.38188826  1  2.638563  0  1.621328  2.388556  0  2.712518  0
Zr  Zr5  1  0.88152077  0.11807970  0.61739524  1  2.634129  0  1.620942  2.387415  0  2.713237  0
H  H6  1  0.09200885  0.72232099  0.59297965  1  0.619413  0  0.331758  0.424809  0  0.853333  0
H  H7  1  0.09177727  0.09391203  0.22145948  1  0.619726  0  0.332146  0.42582  0  0.852803  0
H  H8  1  0.09176890  0.09287087  0.59195419  1  0.608726  0  0.331773  0.424719  0  0.855152  0
H  H9  1  0.72162670  0.09300199  0.59233038  1  0.62619  0  0.330992  0.424105  0  0.853924  0
H  H10  1  0.75353943  0.62746281  0.95731684  1  0.077458  0  0.08323  0.100182  0  1.04105  0
H  H11  1  0.83850140  0.54352353  0.87347383  1  0.063439  0  0.082778  0.098484  0  1.041799  0
H  H12  1  0.83780972  0.37639127  0.04044482  1  0.049851  0  0.082602  0.098542  0  1.040755  0
H  H13  1  0.75275675  0.46015668  0.12452346  1  0.082479  0  0.08326  0.099985  0  1.041271  0
C  C14  1  0.99711645  0.70205103  0.49708765  1  1.605949  0  0.237591  0.66206  0  4.060186  0
C  C15  1  0.30301194  0.99736349  0.20124701  1  1.593002  0  0.237837  0.662569  0  4.054342  0
C  C16  1  0.99627163  0.30404388  0.49767333  1  1.616059  0  0.237587  0.662293  0  4.054173  0
C  C17  1  0.70223883  0.99665173  0.80378969  1  1.590087  0  0.238353  0.66346  0  4.055564  0
C  C18  1  0.99660340  0.70155257  0.80333578  1  1.55807  0  0.236398  0.657455  0  4.075444  0
C  C19  1  0.70123606  0.99778733  0.49723629  1  1.599868  0  0.238119  0.663505  0  4.049399  0
C  C20  1  0.99588189  0.30435723  0.20043194  1  1.547492  0  0.235997  0.65631  0  4.076468  0
C  C21  1  0.30320472  0.99776192  0.49682370  1  1.609358  0  0.237477  0.662122  0  4.05298  0
C  C22  1  0.30308337  0.70196419  0.49649398  1  1.587864  0  0.237242  0.661208  0  4.054886  0
C  C23  1  0.99629410  0.99847538  0.80331161  1  1.609828  0  0.236856  0.660173  0  4.05567  0
C  C24  1  0.70225573  0.30445240  0.49604401  1  1.599552  0  0.238035  0.663246  0  4.054861  0
C  C25  1  0.99709000  0.99762608  0.20146516  1  1.601426  0  0.238034  0.663339  0  4.056186  0
C  C26  1  0.99732874  0.40486282  0.49877734  1  0.019733  0  -0.015236  -0.127251  0  3.846586  0
C  C27  1  0.99844712  0.59872702  0.49898011  1  0.090038  0  -0.015539  -0.126597  0  3.855599  0
C  C28  1  0.07824350  0.45391481  0.41940117  1  0.197188  0  0.01447  0.07567  0  3.996711  0
C  C29  1  0.91994587  0.54724433  0.58078156  1  0.090703  0  0.013346  0.069226  0  3.994702  0
C  C30  1  0.07834793  0.54849861  0.41909723  1  0.103992  0  0.014012  0.073922  0  3.9959  0
C  C31  1  0.91841766  0.45408311  0.57983985  1  0.093923  0  0.013432  0.073923  0  4.000748  0
C  C32  1  0.40462172  0.99758877  0.09896702  1  -0.00105  0  -0.0153  -0.126443  0  3.844866  0
C  C33  1  0.60013628  0.99679496  0.90524386  1  -0.001606  0  -0.01535  -0.127602  0  3.854578  0
C  C34  1  0.45417902  0.07804823  0.04854128  1  0.131553  0  0.01429  0.074979  0  3.996669  0
C  C35  1  0.55037197  0.91652412  0.95542367  1  0.139517  0  0.013387  0.0697  0  3.995466  0
C  C36  1  0.54870079  0.07807848  0.95402152  1  0.214478  0  0.014131  0.074852  0  3.99308  0
C  C37  1  0.45471053  0.91766146  0.04863999  1  0.100544  0  0.013885  0.073959  0  3.999908  0
C  C38  1  0.99725687  0.99945158  0.90425220  1  0.080479  0  -0.015709  -0.127158  0  3.845096  0
C  C39  1  0.99848906  0.99958128  0.09809508  1  0.091454  0  -0.015734  -0.127138  0  3.855593  0
C  C40  1  0.91832647  0.08045986  0.95354554  1  0.100612  0  0.013804  0.073851  0  4.000362  0
C  C41  1  0.07822943  0.91953631  0.04803094  1  0.111825  0  0.013867  0.073515  0  3.995577  0
C  C42  1  0.92013168  0.08161118  0.04646274  1  0.08839  0  0.013338  0.069815  0  3.994712  0
C  C43  1  0.07823981  0.92005176  0.95327491  1  0.130537  0  0.01458  0.075828  0  3.995588  0
C  C44  1  0.40460275  0.59959276  0.49687102  1  0.079253  0  -0.015773  -0.127343  0  3.844681  0
C  C45  1  0.60019572  0.40592470  0.49614546  1  0.021748  0  -0.015685  -0.128151  0  3.85545  0
C  C46  1  0.45470498  0.54921200  0.41699666  1  0.059376  0  0.01396  0.074065  0  3.999353  0
C  C47  1  0.54857092  0.45455258  0.57758966  1  0.114497  0  0.013727  0.074216  0  3.992648  0
C  C48  1  0.55061161  0.45623014  0.41567601  1  0.12447  0  0.013433  0.070129  0  3.994255  0
C  C49  1  0.45415088  0.54920593  0.57738214  1  0.187221  0  0.014454  0.075841  0  3.993879  0
C  C50  1  0.00126448  0.60062192  0.90285415  1  0.068408  0  -0.015333  -0.130138  0  3.914553  0
C  C51  1  0.00076711  0.40390875  0.09942943  1  0.031  0  -0.015329  -0.130179  0  3.914933  0
C  C52  1  0.92438781  0.54865225  0.95376806  1  -0.030206  0  -0.004908  0.070939  0  3.88313  0
C  C53  1  0.08142681  0.45403873  0.04818833  1  0.070298  0  0.014179  0.066363  0  3.985027  0
C  C54  1  0.92406940  0.45532035  0.04705080  1  -0.015878  0  -0.005072  0.070763  0  3.881936  0
C  C55  1  0.08163736  0.54898735  0.95337460  1  0.117147  0  0.014207  0.067134  0  3.987111  0
C  C56  1  0.82458501  0.55437567  0.94691404  1  -0.035364  0  -0.160458  -0.192079  0  3.863043  0
C  C57  1  0.82414723  0.44944598  0.05177650  1  -0.017155  0  -0.1593  -0.191166  0  3.861663  0
C  C58  1  0.40434272  0.99851813  0.49768195  1  0.043626  0  -0.015393  -0.127012  0  3.843626  0
C  C59  1  0.59884155  0.99849569  0.49785068  1  0.038952  0  -0.015985  -0.128229  0  3.850723  0
C  C60  1  0.45385480  0.91897666  0.57842158  1  0.160862  0  0.01326  0.074156  0  3.993497  0
C  C61  1  0.54826255  0.07924157  0.41822443  1  0.094646  0  0.013226  0.075019  0  3.993438  0
C  C62  1  0.54823115  0.91892789  0.57852100  1  0.104611  0  0.012991  0.074467  0  3.993253  0
C  C63  1  0.45387002  0.07923679  0.41821594  1  0.151555  0  0.013336  0.074013  0  3.994856  0
Cl  Cl64  1  0.18196111  0.40316684  0.31841850  1  -0.122503  0  0.016119  -0.024562  0  1.880504  0
Cl  Cl65  1  0.82216980  0.59244885  0.68788929  1  -0.139743  0  0.029037  -0.018551  0  1.825405  0
Cl  Cl66  1  0.18158418  0.59685994  0.31704587  1  -0.140449  0  0.014438  -0.026383  0  1.87459  0
Cl  Cl67  1  0.81612498  0.40465357  0.68282973  1  -0.13702  0  0.012494  -0.032246  0  1.865615  0
Cl  Cl68  1  0.40373516  0.18165259  0.09657185  1  -0.129856  0  0.01633  -0.024236  0  1.881683  0
Cl  Cl69  1  0.60145281  0.81244138  0.90715351  1  -0.140558  0  0.02982  -0.017359  0  1.828841  0
Cl  Cl70  1  0.59578146  0.18263099  0.90287659  1  -0.132087  0  0.014651  -0.026524  0  1.874037  0
Cl  Cl71  1  0.40315553  0.81751050  0.09550403  1  -0.124282  0  0.012595  -0.03246  0  1.867052  0
Cl  Cl72  1  0.81563363  0.18313065  0.90450883  1  -0.141794  0  0.012642  -0.031861  0  1.867045  0
Cl  Cl73  1  0.18104971  0.81701062  0.09687399  1  -0.133216  0  0.014425  -0.026435  0  1.872923  0
Cl  Cl74  1  0.82304818  0.18929273  0.09105389  1  -0.140354  0  0.028858  -0.019036  0  1.822808  0
Cl  Cl75  1  0.18224628  0.81938070  0.90222697  1  -0.13132  0  0.016435  -0.024282  0  1.880669  0
Cl  Cl76  1  0.40280775  0.59562368  0.31721856  1  -0.131758  0  0.012779  -0.032267  0  1.868735  0
Cl  Cl77  1  0.59528871  0.40302475  0.68254363  1  -0.132597  0  0.014778  -0.026597  0  1.872358  0
Cl  Cl78  1  0.60230171  0.40853592  0.31100666  1  -0.138637  0  0.03005  -0.017288  0  1.82557  0
Cl  Cl79  1  0.40372873  0.59733420  0.68091210  1  -0.128799  0  0.016592  -0.024094  0  1.880533  0
Cl  Cl80  1  0.40342267  0.81758684  0.68234639  1  -0.127297  0  0.013217  -0.027568  0  1.873434  0
Cl  Cl81  1  0.59640343  0.18315517  0.31668814  1  -0.137937  0  0.0116  -0.037266  0  1.847864  0
Cl  Cl82  1  0.59633246  0.81738177  0.68247185  1  -0.140062  0  0.011852  -0.036659  0  1.851315  0
Cl  Cl83  1  0.40339513  0.18324546  0.31683796  1  -0.134056  0  0.013081  -0.027781  0  1.872659  0
Cl  Cl84  1  0.18501053  0.40225195  0.09711334  1  -0.156274  0  0.000201  -0.046218  0  1.858052  0
Cl  Cl85  1  0.18523438  0.59763118  0.90224201  1  -0.148719  0  0.00029  -0.04628  0  1.856606  0
O  O86  1  0.92152714  0.74331589  0.57051411  1  -1.17334  0  -0.352046  -0.615152  0  2.380746  0
O  O87  1  0.26247025  0.07222113  0.24115743  1  -1.166684  0  -0.351068  -0.613576  0  2.367376  0
O  O88  1  0.07080691  0.26386236  0.42313790  1  -1.18323  0  -0.349907  -0.610967  0  2.367962  0
O  O89  1  0.74233129  0.92224775  0.76342742  1  -1.167588  0  -0.353644  -0.618571  0  2.376628  0
O  O90  1  0.06823099  0.74614738  0.76118307  1  -1.170975  0  -0.361238  -0.62407  0  2.381582  0
O  O91  1  0.74126183  0.07256834  0.42269025  1  -1.169987  0  -0.352252  -0.611823  0  2.371639  0
O  O92  1  0.92011114  0.26688122  0.23516640  1  -1.163451  0  -0.343093  -0.605528  0  2.218476  0
O  O93  1  0.26305952  0.92307334  0.57146707  1  -1.185056  0  -0.351551  -0.614332  0  2.363202  0
O  O94  1  0.26283422  0.74207350  0.42199508  1  -1.16926  0  -0.351271  -0.610893  0  2.366939  0
O  O95  1  0.92151325  0.07290247  0.76328527  1  -1.17322  0  -0.351624  -0.611604  0  2.365501  0
O  O96  1  0.74199685  0.26402441  0.57096447  1  -1.166947  0  -0.351218  -0.610836  0  2.369789  0
O  O97  1  0.07204871  0.92334609  0.24120863  1  -1.167232  0  -0.352072  -0.612229  0  2.369301  0
O  O98  1  0.07100796  0.92412379  0.76295921  1  -1.183238  0  -0.349772  -0.610123  0  2.368292  0
O  O99  1  0.74220745  0.26399249  0.42174633  1  -1.169009  0  -0.353252  -0.618092  0  2.377673  0
O  O100  1  0.92123806  0.07079626  0.24295869  1  -1.17237  0  -0.352351  -0.615647  0  2.379826  0
O  O101  1  0.26272950  0.74208095  0.57114557  1  -1.166404  0  -0.350753  -0.612608  0  2.366895  0
O  O102  1  0.92079567  0.73636598  0.76585497  1  -1.165013  0  -0.343271  -0.605364  0  2.220807  0
O  O103  1  0.26299026  0.07243712  0.42217636  1  -1.171885  0  -0.350896  -0.613536  0  2.361996  0
O  O104  1  0.06737212  0.26222245  0.24524567  1  -1.177175  0  -0.360969  -0.623485  0  2.379265  0
O  O105  1  0.74139707  0.92314541  0.57191058  1  -1.167951  0  -0.351782  -0.611813  0  2.370666  0
O  O106  1  0.74188571  0.07162796  0.76331710  1  -1.168726  0  -0.351043  -0.611137  0  2.370467  0
O  O107  1  0.07186989  0.74196269  0.42263301  1  -1.174363  0  -0.35194  -0.612072  0  2.369873  0
O  O108  1  0.26283847  0.92282200  0.24144227  1  -1.16509  0  -0.351751  -0.612054  0  2.367799  0
O  O109  1  0.92157559  0.26396371  0.57212877  1  -1.17223  0  -0.352172  -0.612953  0  2.366707  0
O  O110  1  0.80059549  0.06662100  0.56598981  1  -1.252555  0  -0.691317  -1.062771  0  2.355339  0
O  O111  1  0.06534500  0.06659888  0.56570941  1  -1.234205  0  -0.693682  -1.066396  0  2.36607  0
O  O112  1  0.06507377  0.06693189  0.30056529  1  -1.244746  0  -0.692721  -1.067815  0  2.36012  0
O  O113  1  0.06529325  0.80142312  0.56604492  1  -1.244739  0  -0.692499  -1.066597  0  2.360038  0
O  O114  1  0.14511810  0.95178561  0.45082439  1  -1.192406  0  -0.788187  -1.148002  0  2.126061  0
O  O115  1  0.95062690  0.95187906  0.45116046  1  -1.191993  0  -0.785908  -1.143313  0  2.121368  0
O  O116  1  0.95024578  0.14652899  0.45076781  1  -1.189828  0  -0.787151  -1.146622  0  2.125956  0
O  O117  1  0.95039475  0.95152851  0.64577708  1  -1.191548  0  -0.786951  -1.145891  0  2.124993  0
