# generated using pymatgen
data_CuH13C6INO2
_symmetry_space_group_name_H-M   'P 1'
_cell_length_a   7.40132578
_cell_length_b   8.33517516
_cell_length_c   8.85416707
_cell_angle_alpha   113.61906719
_cell_angle_beta   102.00885988
_cell_angle_gamma   101.92990563
_symmetry_Int_Tables_number   1
_chemical_formula_structural   CuH13C6INO2
_chemical_formula_sum   'Cu2 H26 C12 I2 N2 O4'
_cell_volume   463.16286848
_cell_formula_units_Z   2
loop_
 _symmetry_equiv_pos_site_id
 _symmetry_equiv_pos_as_xyz
  1  'x, y, z'
loop_
 _atom_site_type_symbol
 _atom_site_label
 _atom_site_symmetry_multiplicity
 _atom_site_fract_x
 _atom_site_fract_y
 _atom_site_fract_z
 _atom_site_occupancy
 _atom_site_pbe_bader_spin_density
 _atom_site_pbe_cm5_charge
 _atom_site_pbe_ddec_charge
 _atom_site_pbe_ddec_spin_density
 _atom_site_pbe_ddec_sum_bond_order
 _atom_site_pbe_magmom
Cu  Cu0  1  0.37678864  0.56100407  0.55358144  1  0  0.267622  0.184453  0  2.506563  0
Cu  Cu1  1  0.62320153  0.43899375  0.44641475  1  0  0.267612  0.184418  0  2.506651  0
H  H2  1  0.10928994  0.63456151  0.69312998  1  0  0.280913  0.23681  0  0.975963  0
H  H3  1  0.89070615  0.36543777  0.30687574  1  0  0.280963  0.236861  0  0.97618  0
H  H4  1  0.47134727  0.94595336  0.83425189  1  0  0.095883  0.079272  0  1.02129  0
H  H5  1  0.52865446  0.05404995  0.16575068  1  0  0.095872  0.079258  0  1.02134  0
H  H6  1  0.24889548  0.96340166  0.87893990  1  0  0.089003  0.071864  0  1.011565  0
H  H7  1  0.75110667  0.03659885  0.12106060  1  0  0.088996  0.07184  0  1.011546  0
H  H8  1  0.07726501  0.85058136  0.56747592  1  0  0.088716  0.056254  0  1.030752  0
H  H9  1  0.92273340  0.14941642  0.43252404  1  0  0.0887  0.056231  0  1.030765  0
H  H10  1  0.28320548  0.05424637  0.64930065  1  0  0.09625  0.063342  0  0.991163  0
H  H11  1  0.71678786  0.94575294  0.35070457  1  0  0.096241  0.063357  0  0.991044  0
H  H12  1  0.33453664  0.72144260  0.25078774  1  0  0.102877  0.079236  0  0.994875  0
H  H13  1  0.66545130  0.27856087  0.74921461  1  0  0.102855  0.079206  0  0.994808  0
H  H14  1  0.34618037  0.95978533  0.35734201  1  0  0.090909  0.064825  0  1.044524  0
H  H15  1  0.65381640  0.04021932  0.64265449  1  0  0.090924  0.064847  0  1.044535  0
H  H16  1  0.99362179  0.86181089  0.32525216  1  0  0.091254  0.048563  0  1.038608  0
H  H17  1  0.00636842  0.13819116  0.67475010  1  0  0.091267  0.048576  0  1.038703  0
H  H18  1  0.03726461  0.78212059  0.12241459  1  0  0.088076  0.060441  0  1.021418  0
H  H19  1  0.96272748  0.21788282  0.87758738  1  0  0.088075  0.060442  0  1.021479  0
H  H20  1  0.70927429  0.54000317  0.01577311  1  0  0.091487  0.060366  0  1.004292  0
H  H21  1  0.29073829  0.45998744  0.98422006  1  0  0.091509  0.060354  0  1.004229  0
H  H22  1  0.69885568  0.61665752  0.23402407  1  0  0.085512  0.040473  0  1.025525  0
H  H23  1  0.30114500  0.38333456  0.76596633  1  0  0.085473  0.040418  0  1.025541  0
H  H24  1  0.27223341  0.75967372  0.00063903  1  0  0.097531  0.073043  0  1.009961  0
H  H25  1  0.72777772  0.24031703  0.99936184  1  0  0.09752  0.072958  0  1.009854  0
H  H26  1  0.48421359  0.71835905  0.94705280  1  0  0.095202  0.079671  0  1.01814  0
H  H27  1  0.51579636  0.28163996  0.05294633  1  0  0.095184  0.079658  0  1.018118  0
C  C28  1  0.31131479  0.88693421  0.78049420  1  0  -0.086988  -0.070304  0  3.906078  0
C  C29  1  0.68868283  0.11306910  0.21950536  1  0  -0.086964  -0.070248  0  3.906027  0
C  C30  1  0.23833737  0.90647696  0.61804703  1  0  -0.076257  0.010258  0  3.901763  0
C  C31  1  0.76166481  0.09352778  0.38195953  1  0  -0.076188  0.010286  0  3.9016  0
C  C32  1  0.27320083  0.81806182  0.33331342  1  0  -0.078297  -0.012847  0  3.903244  0
C  C33  1  0.72679997  0.18193864  0.66668343  1  0  -0.078289  -0.01286  0  3.903274  0
C  C34  1  0.05721458  0.76642530  0.24260398  1  0  -0.084874  -0.020048  0  3.966287  0
C  C35  1  0.94278017  0.23357392  0.75739695  1  0  -0.084904  -0.02001  0  3.966558  0
C  C36  1  0.75526583  0.52758603  0.13675381  1  0  -0.074306  0.007703  0  3.936196  0
C  C37  1  0.24474185  0.47241440  0.86324542  1  0  -0.074305  0.00778  0  3.936111  0
C  C38  1  0.32369563  0.67120152  0.89963733  1  0  -0.081465  -0.067793  0  3.919239  0
C  C39  1  0.67630871  0.32879342  0.10036155  1  0  -0.081422  -0.06767  0  3.918875  0
I  I40  1  0.23727028  0.26930096  0.26727093  1  0  -0.201232  -0.377568  0  1.900178  0
I  I41  1  0.76273146  0.73069804  0.73272104  1  0  -0.201255  -0.377596  0  1.900173  0
N  N42  1  0.25940004  0.68988669  0.73995918  1  0  -0.511786  -0.262978  0  3.530483  0
N  N43  1  0.74061505  0.31011929  0.26004794  1  0  -0.511892  -0.263119  0  3.530691  0
O  O44  1  0.32041903  0.80641665  0.49338229  1  0  -0.23406  -0.197069  0  2.605994  0
O  O45  1  0.67958462  0.19358792  0.50661431  1  0  -0.234113  -0.197056  0  2.606128  0
O  O46  1  0.96205215  0.58141848  0.20358893  1  0  -0.23192  -0.207915  0  2.526193  0
O  O47  1  0.03794857  0.41858214  0.79641700  1  0  -0.23191  -0.207982  0  2.526033  0
