# generated using pymatgen
data_CoH20C27Br4(NO)4
_symmetry_space_group_name_H-M   'P 1'
_cell_length_a   11.00539605
_cell_length_b   11.06337761
_cell_length_c   12.43977864
_cell_angle_alpha   76.70376574
_cell_angle_beta   79.73640690
_cell_angle_gamma   88.26701226
_symmetry_Int_Tables_number   1
_chemical_formula_structural   CoH20C27Br4(NO)4
_chemical_formula_sum   'Co2 H40 C54 Br8 N8 O8'
_cell_volume   1450.34927499
_cell_formula_units_Z   2
loop_
 _symmetry_equiv_pos_site_id
 _symmetry_equiv_pos_as_xyz
  1  'x, y, z'
loop_
 _atom_site_type_symbol
 _atom_site_label
 _atom_site_symmetry_multiplicity
 _atom_site_fract_x
 _atom_site_fract_y
 _atom_site_fract_z
 _atom_site_occupancy
 _atom_site_hle17_ddec_charge
 _atom_site_hle17_ddec_spin_density
 _atom_site_hle17_ddec_sum_bond_order
 _atom_site_hle17_magmom
 _atom_site_hse06_10hf_ddec_charge
 _atom_site_hse06_10hf_ddec_spin_density
 _atom_site_hse06_10hf_ddec_sum_bond_order
 _atom_site_hse06_10hf_magmom
 _atom_site_hse06_ddec_charge
 _atom_site_hse06_ddec_spin_density
 _atom_site_hse06_ddec_sum_bond_order
 _atom_site_hse06_magmom
 _atom_site_pbe_cm5_charge
 _atom_site_pbe_ddec_charge
 _atom_site_pbe_ddec_spin_density
 _atom_site_pbe_ddec_sum_bond_order
 _atom_site_pbe_magmom
Co  Co0  1  0.72363171  0.27316692  0.27731499  1  0.972759  -2.808573  1.974694  -2.525  0.919192  -2.819633  2.424809  -2.583  1.012199  -2.868129  2.337068  -2.676  0.671884  0.84561  -2.771719  2.49108  -2.495
Co  Co1  1  0.27636828  0.72683175  0.72268528  1  0.97285  -2.808598  1.974614  -2.525  0.91922  -2.819628  2.424739  -2.583  1.012228  -2.868126  2.337003  -2.676  0.671849  0.845586  -2.771935  2.491074  -2.495
H  H2  1  0.48853570  0.28618979  0.47278030  1  0.098683  4.2e-05  0.937257  -0.001  0.110793  -6.1e-05  0.996297  0.0  0.112447  -3.2e-05  0.993664  0.0  0.14239  0.109432  -9.4e-05  0.998454  -0.001
H  H3  1  0.51146527  0.71381258  0.52722069  1  0.098696  4.5e-05  0.937251  -0.001  0.110807  -6.1e-05  0.996296  0.0  0.112461  -3.2e-05  0.993659  0.0  0.142454  0.10948  -7.7e-05  0.998444  -0.001
H  H4  1  0.50994426  0.47248163  0.36858850  1  0.126721  4.7e-05  0.954077  0.0  0.139414  9e-06  1.008035  0.0  0.143241  3.6e-05  1.005227  0.0  0.108793  0.136532  -3.2e-05  1.010248  0.0
H  H5  1  0.49005575  0.52751891  0.63140979  1  0.126693  4.8e-05  0.954066  0.0  0.139394  9e-06  1.008034  0.0  0.14322  3.7e-05  1.005228  0.0  0.108802  0.136533  -2.4e-05  1.010241  0.0
H  H6  1  0.65555085  0.26872443  0.04916383  1  0.083354  0.000191  1.00045  0.0  0.087964  -3.5e-05  1.076411  0.0  0.090798  1.1e-05  1.072404  0.0  0.123809  0.085541  -8.6e-05  1.07977  0.0
H  H7  1  0.34445006  0.73127331  0.95083648  1  0.083379  0.000187  1.000494  0.0  0.088024  -3.5e-05  1.076397  0.0  0.090837  1.1e-05  1.07241  0.0  0.123842  0.085586  -7.4e-05  1.079784  0.0
H  H8  1  0.83880039  0.00835719  0.37213006  1  0.111594  6.7e-05  0.971029  0.0  0.116124  -2.1e-05  1.043576  0.0  0.120063  3.4e-05  1.040649  0.0  0.098047  0.113264  -8.9e-05  1.045736  0.0
H  H9  1  0.16120241  0.99164428  0.62786761  1  0.111583  6.2e-05  0.971076  0.0  0.116114  -2e-05  1.043611  0.0  0.120057  3.4e-05  1.040679  0.0  0.098059  0.113266  -8.4e-05  1.045768  0.0
H  H10  1  0.55782970  0.88943375  0.74928389  1  0.103926  -7.6e-05  0.954342  0.0  0.115219  -8.4e-05  1.015634  0.0  0.117598  -3.4e-05  1.015279  0.0  0.102025  0.113501  -0.000146  1.016034  0.0
H  H11  1  0.44217033  0.11056769  0.25071824  1  0.103927  -7.5e-05  0.954386  0.0  0.115229  -8.4e-05  1.01566  0.0  0.117609  -3.4e-05  1.015304  0.0  0.102042  0.113524  -0.000149  1.016038  0.0
H  H12  1  0.51936730  0.33996153  0.89690805  1  0.07004  1.1e-05  0.955219  0.0  0.084077  0.0  1.022437  0.0  0.083484  7e-06  1.025123  0.0  0.106483  0.084331  -3e-06  1.020733  0.0
H  H13  1  0.48063271  0.66003807  0.10309123  1  0.070041  1.5e-05  0.955233  0.0  0.084083  0.0  1.022446  0.0  0.08349  7e-06  1.025132  0.0  0.1065  0.084351  4e-06  1.020741  0.0
H  H14  1  0.36906374  0.39312032  0.93769109  1  0.089306  -2e-06  0.90504  0.0  0.107948  -1.3e-05  0.958303  0.0  0.108481  1.2e-05  0.958498  0.0  0.119382  0.107447  -1.6e-05  0.958387  0.0
H  H15  1  0.63093628  0.60688020  0.06231043  1  0.089313  -2e-06  0.905033  0.0  0.107948  -1.3e-05  0.958314  0.0  0.108482  1.2e-05  0.958508  0.0  0.119351  0.107424  -4.8e-05  0.958385  0.0
H  H16  1  0.86946078  0.81176195  0.51044250  1  0.081635  1.7e-05  0.994473  0.0  0.088703  1.1e-05  1.063266  0.0  0.091251  9e-06  1.062506  0.0  0.084398  0.086727  3.2e-05  1.064145  0.0
H  H17  1  0.13054110  0.18823949  0.48955853  1  0.081592  1.8e-05  0.994493  0.0  0.088648  1.1e-05  1.063306  0.0  0.091194  9e-06  1.062543  0.0  0.08442  0.086723  8.4e-05  1.064174  0.0
H  H18  1  0.36589106  0.03788831  0.71177734  1  0.088495  9.7e-05  0.925598  0.0  0.104026  0.000105  0.988418  0.0  0.105069  0.000144  0.988053  0.0  0.111063  0.103076  6.7e-05  0.988885  0.0
H  H19  1  0.63410714  0.96211408  0.28822329  1  0.088514  9.6e-05  0.925571  0.0  0.104022  0.000105  0.988379  0.0  0.105066  0.000144  0.988014  0.0  0.111035  0.103033  3.5e-05  0.988838  0.0
H  H20  1  0.35083154  0.19681685  0.64980747  1  0.076115  4e-06  0.926521  0.0  0.091216  -1.2e-05  0.991103  0.0  0.09182  -4e-06  0.991264  0.0  0.110053  0.090754  4e-06  0.991046  0.0
H  H21  1  0.64916758  0.80318554  0.35019301  1  0.076102  4e-06  0.926579  0.0  0.091165  -1.2e-05  0.991152  0.0  0.091768  -4e-06  0.991318  0.0  0.109998  0.090657  -3.2e-05  0.99109  0.0
H  H22  1  0.30124281  0.56795503  0.38628156  1  0.093665  4.7e-05  0.993406  0.0  0.098349  5.4e-05  1.065395  0.0  0.101463  5.7e-05  1.064014  0.0  0.089232  0.095955  4.9e-05  1.066616  0.0
H  H23  1  0.69876000  0.43204735  0.61371673  1  0.093652  4.7e-05  0.993405  0.0  0.098349  5.4e-05  1.065373  0.0  0.101464  5.8e-05  1.063987  0.0  0.089249  0.095989  7.2e-05  1.066584  0.0
H  H24  1  0.29814899  0.08006913  0.89810087  1  0.064047  -2.2e-05  0.960455  0.0  0.079038  -3.8e-05  1.027104  0.0  0.079267  -1.7e-05  1.028525  0.0  0.081366  0.078707  -7.2e-05  1.026249  0.0
H  H25  1  0.70185104  0.91993232  0.10189965  1  0.064031  -2.4e-05  0.960415  0.0  0.079037  -3.8e-05  1.027058  0.0  0.079269  -1.6e-05  1.028479  0.0  0.081365  0.078719  -7.6e-05  1.026184  0.0
H  H26  1  0.28604693  0.24099107  0.84469128  1  0.064857  6e-06  0.93893  0.0  0.086124  -9e-06  0.993707  0.0  0.086788  -6e-06  0.994003  0.0  0.08442  0.085533  -1.4e-05  0.993652  0.0
H  H27  1  0.71395309  0.75900945  0.15531023  1  0.06486  1e-06  0.938948  0.0  0.08613  -9e-06  0.993726  0.0  0.086796  -6e-06  0.994022  0.0  0.084431  0.085553  -8e-06  0.993667  0.0
H  H28  1  0.73152867  0.75255036  0.69348391  1  0.08475  5.5e-05  0.985954  0.0  0.094798  3e-05  1.047615  0.0  0.096283  2.7e-05  1.049183  0.0  0.092189  0.093658  2e-06  1.04673  0.0
H  H29  1  0.26847321  0.24745108  0.30651793  1  0.084742  5.7e-05  0.985993  0.0  0.094766  3e-05  1.047679  0.0  0.096251  2.7e-05  1.049245  0.0  0.092201  0.093654  1.9e-05  1.046783  0.0
H  H30  1  0.23256602  0.46559362  0.08650389  1  0.128976  -0.000139  0.920832  0.0  0.144223  -0.000108  0.968597  0.0  0.147559  -6.8e-05  0.966864  0.0  0.117539  0.141694  -0.000167  0.97015  0.0
H  H31  1  0.76743400  0.53440691  0.91349682  1  0.128979  -0.000137  0.92082  0.0  0.144226  -0.000108  0.968588  0.0  0.147563  -6.9e-05  0.966854  0.0  0.117551  0.141706  -0.000167  0.970126  0.0
H  H32  1  0.50987569  0.25179008  0.75308215  1  0.070778  5e-06  0.945883  0.0  0.089834  3e-06  1.005225  0.0  0.090353  6e-06  1.006455  0.0  0.088431  0.08932  -5e-06  1.004653  0.0
H  H33  1  0.49012433  0.74821044  0.24691856  1  0.07077  9e-06  0.94587  0.0  0.089837  3e-06  1.005224  0.0  0.090358  6e-06  1.006452  0.0  0.088422  0.089312  -1.5e-05  1.004655  0.0
H  H34  1  0.52586223  0.09278180  0.81556370  1  0.062002  5e-06  0.950917  0.0  0.079542  4e-06  1.016644  0.0  0.080298  3e-06  1.016742  0.0  0.082075  0.078943  -1e-06  1.016635  0.0
H  H35  1  0.47413777  0.90721780  0.18443639  1  0.06202  9e-06  0.950929  0.0  0.079576  4e-06  1.016654  0.0  0.080332  2e-06  1.016753  0.0  0.082106  0.078985  2.2e-05  1.016656  0.0
H  H36  1  0.30483579  0.17904444  0.05078642  1  0.068009  -2e-06  0.965738  0.0  0.079275  -6e-06  1.039454  0.0  0.080599  -7e-06  1.039301  0.0  0.081427  0.078245  -2.2e-05  1.039566  0.0
H  H37  1  0.69516332  0.82095701  0.94921425  1  0.068014  2e-06  0.965751  0.0  0.079289  -6e-06  1.039462  0.0  0.080612  -7e-06  1.039312  0.0  0.081465  0.078299  1e-06  1.039563  0.0
H  H38  1  0.45505990  0.12449646  0.01198196  1  0.05874  6e-06  0.943797  0.0  0.075116  8e-06  1.011602  0.0  0.075999  7e-06  1.011564  0.0  0.081861  0.074548  2.6e-05  1.011511  0.0
H  H39  1  0.54493920  0.87550407  0.98801970  1  0.058729  9e-06  0.943825  0.0  0.075116  8e-06  1.011628  0.0  0.076001  7e-06  1.011588  0.0  0.081838  0.074534  3e-06  1.01153  0.0
H  H40  1  0.16652093  0.56633226  0.24522484  1  0.087605  8e-05  0.980091  0.0  0.093685  5e-06  1.049339  0.0  0.096068  7e-06  1.048847  0.0  0.090052  0.091781  -4.1e-05  1.050016  0.0
H  H41  1  0.83348005  0.43367106  0.75477355  1  0.087634  7.8e-05  0.980058  0.0  0.093705  6e-06  1.04931  0.0  0.096088  8e-06  1.048818  0.0  0.090098  0.091842  3e-06  1.049987  0.0
C  C42  1  0.96380303  0.96595226  0.90873855  1  0.031802  -0.000836  3.690174  -0.001  0.030538  -0.000854  3.966601  -0.001  0.033689  -0.000518  3.985938  -0.001  -0.02367  0.028183  -0.001391  3.954177  -0.001
C  C43  1  0.03619700  0.03404922  0.09125795  1  0.031763  -0.000661  3.690217  -0.001  0.030513  -0.000856  3.966672  -0.001  0.033641  -0.000521  3.985989  -0.001  -0.02362  0.028202  -0.001313  3.954274  -0.001
C  C44  1  0.89780057  0.05551596  0.95802511  1  0.031076  -0.000708  3.696515  -0.001  0.029472  -0.000931  3.976066  -0.001  0.032644  -0.000575  3.995586  -0.001  -0.022208  0.027082  -0.001498  3.963496  -0.002
C  C45  1  0.10220036  0.94448364  0.04197403  1  0.031092  -0.00089  3.696548  -0.001  0.029494  -0.000929  3.976024  -0.001  0.032688  -0.000571  3.995566  -0.001  -0.022195  0.02711  -0.001415  3.963547  -0.002
C  C46  1  0.05052765  0.61956273  0.46525430  1  0.028975  -0.000887  3.687124  -0.001  0.030887  -0.000958  3.959516  -0.001  0.033659  -0.000581  3.97925  -0.001  -0.020673  0.028832  -0.001399  3.946508  -0.002
C  C47  1  0.94947044  0.38043224  0.53474701  1  0.028926  -0.000917  3.687035  -0.001  0.030865  -0.000956  3.959323  -0.001  0.033632  -0.00058  3.979057  -0.001  -0.020685  0.028805  -0.001394  3.946378  -0.002
C  C48  1  0.93290748  0.09026848  0.04961816  1  -0.092883  -0.003402  3.724932  -0.005  -0.088029  -0.002101  3.972995  -0.003  -0.089407  -0.001141  3.987944  -0.002  -0.022162  -0.087775  -0.003258  3.963878  -0.004
C  C49  1  0.06709162  0.90973206  0.95038109  1  -0.093003  -0.003237  3.725026  -0.005  -0.088059  -0.002103  3.972948  -0.003  -0.089512  -0.001145  3.987995  -0.002  -0.022165  -0.087859  -0.00325  3.963922  -0.004
C  C50  1  0.91305316  0.46289197  0.44257014  1  -0.087986  -0.002916  3.718565  -0.004  -0.08107  -0.00178  3.961814  -0.002  -0.082734  -0.0008  3.977217  -0.001  -0.017807  -0.080477  -0.002985  3.952181  -0.003
C  C51  1  0.08694682  0.53710578  0.55742952  1  -0.087984  -0.002944  3.718629  -0.004  -0.081136  -0.001779  3.962  -0.002  -0.08281  -0.000799  3.977415  -0.001  -0.017787  -0.080515  -0.002981  3.95235  -0.003
C  C52  1  0.86284048  0.18810286  0.10300367  1  0.628502  0.006872  3.981776  0.007  0.583007  -0.00037  4.289332  0.001  0.617688  0.000148  4.28461  0.001  0.186198  0.558443  -0.001328  4.291109  0.001
C  C53  1  0.13715952  0.81189675  0.89699481  1  0.628489  0.006862  3.981818  0.006  0.582976  -0.00037  4.289364  0.001  0.61768  0.000147  4.284642  0.001  0.186309  0.558509  -0.001049  4.291217  0.001
C  C54  1  0.96432258  0.58271733  0.40825025  1  0.035754  -0.000813  3.688853  -0.001  0.036084  -0.000936  3.963476  -0.001  0.039097  -0.000571  3.982927  -0.001  -0.019243  0.033961  -0.001584  3.950771  -0.002
C  C55  1  0.03567462  0.41727950  0.59175083  1  0.035669  -0.000786  3.688754  -0.001  0.036027  -0.000937  3.963367  -0.001  0.039042  -0.000571  3.982822  -0.001  -0.019261  0.033921  -0.001518  3.950711  -0.002
C  C56  1  0.68012905  0.05825345  0.48373151  1  0.142247  0.001458  3.820557  0.001  0.143365  -0.001416  4.069388  -0.002  0.148047  -0.000982  4.092917  -0.001  0.080537  0.13986  -0.001854  4.053613  -0.002
C  C57  1  0.31987003  0.94174616  0.51626792  1  0.142092  0.001383  3.820539  0.001  0.143265  -0.001413  4.069386  -0.002  0.147945  -0.00098  4.092918  -0.001  0.080485  0.139776  -0.001814  4.053632  -0.002
C  C58  1  0.48510176  0.40892445  0.22164344  1  0.140558  0.002366  3.830308  0.001  0.140843  -0.000485  4.083125  -0.001  0.144928  -4.8e-05  4.107919  -0.001  0.085211  0.137817  -0.001036  4.066202  -0.002
C  C59  1  0.51489823  0.59107424  0.77835442  1  0.140569  0.002335  3.830205  0.001  0.141034  -0.000485  4.082849  -0.001  0.145117  -4.9e-05  4.107641  -0.001  0.085265  0.138017  -0.001037  4.065926  -0.002
C  C60  1  0.81701291  0.42220007  0.38428186  1  0.634237  0.004814  3.979374  0.005  0.585935  -0.002623  4.292617  -0.001  0.621924  -0.00162  4.287594  -0.001  0.18987  0.560481  -0.003702  4.294572  -0.002
C  C61  1  0.18298612  0.57779584  0.61571591  1  0.634323  0.004838  3.979298  0.005  0.586032  -0.002623  4.292557  -0.001  0.622028  -0.001622  4.287527  -0.001  0.189883  0.560566  -0.003721  4.294507  -0.002
C  C62  1  0.60236641  0.02474881  0.59015044  1  0.09546  -0.002184  3.772977  -0.003  0.084898  -0.00128  4.016663  -0.002  0.088758  -0.000879  4.038425  -0.001  0.086331  0.082323  -0.001683  4.002017  -0.002
C  C63  1  0.39763175  0.97525081  0.40984833  1  0.095597  -0.002154  3.772819  -0.003  0.084889  -0.001282  4.016698  -0.002  0.088748  -0.000882  4.038462  -0.001  0.086302  0.08232  -0.001671  4.002028  -0.002
C  C64  1  0.54286785  0.20331210  0.49295329  1  0.224703  0.009191  3.639894  0.006  0.161627  -0.000998  3.918003  -0.002  0.181861  -0.000867  3.9285  -0.001  0.167561  0.14775  -0.000816  3.910669  -0.002
C  C65  1  0.45713218  0.79668935  0.50704803  1  0.224701  0.009127  3.639885  0.006  0.161624  -0.000998  3.918002  -0.002  0.18186  -0.000864  3.928499  -0.001  0.167554  0.147749  -0.000815  3.91065  -0.002
C  C66  1  0.44806114  0.46764292  0.31023052  1  -0.151178  -0.001878  3.731051  -0.003  -0.16934  -0.000718  3.977591  -0.001  -0.172548  -0.000485  3.996541  -0.001  -0.093761  -0.166949  -0.001081  3.964829  -0.001
C  C67  1  0.55194169  0.53236039  0.68976758  1  -0.151085  -0.001865  3.730934  -0.003  -0.169332  -0.000718  3.977475  -0.001  -0.172542  -0.000482  3.996427  -0.001  -0.09375  -0.166911  -0.001021  3.964718  -0.001
C  C68  1  0.58457934  0.31541724  0.09655844  1  0.207006  0.001576  3.659506  0.0  0.144598  -0.004317  3.937562  -0.006  0.16445  -0.003725  3.947234  -0.005  0.156591  0.130685  -0.004575  3.931414  -0.006
C  C69  1  0.41541791  0.68458329  0.90344271  1  0.206948  0.001619  3.659567  0.0  0.14453  -0.004317  3.937606  -0.006  0.1644  -0.003727  3.947289  -0.005  0.156546  0.130624  -0.004586  3.931462  -0.006
C  C70  1  0.77833229  0.98249560  0.45345622  1  -0.138201  -0.001426  3.737891  -0.002  -0.158068  -0.000508  3.989047  -0.001  -0.160778  -0.000288  4.008352  -0.001  -0.094938  -0.156103  -0.000784  3.976327  -0.001
C  C71  1  0.22166681  0.01750493  0.54654464  1  -0.138147  -0.001376  3.737839  -0.002  -0.158011  -0.000511  3.988978  -0.001  -0.160723  -0.000293  4.008278  -0.001  -0.094922  -0.156076  -0.000785  3.976278  -0.001
C  C72  1  0.40804720  0.40870451  0.14153793  1  0.092606  -0.002617  3.776439  -0.004  0.081599  -0.00163  4.023795  -0.002  0.085452  -0.001163  4.045093  -0.002  0.090961  0.079027  -0.002136  4.009473  -0.003
C  C73  1  0.59195284  0.59129789  0.85845999  1  0.092542  -0.002589  3.776418  -0.004  0.081448  -0.001628  4.023807  -0.002  0.085301  -0.001163  4.045107  -0.002  0.090921  0.078901  -0.002125  4.009441  -0.003
C  C74  1  0.61842646  0.91519508  0.66806404  1  -0.147815  0.00054  3.765227  0.0  -0.1719  -0.000113  4.030547  0.0  -0.175355  1.3e-05  4.051547  0.0  -0.102438  -0.169281  -0.000245  4.016065  0.0
C  C75  1  0.38157541  0.08480544  0.33193557  1  -0.147897  0.000485  3.765215  0.0  -0.171932  -0.000113  4.030556  0.0  -0.175386  1.3e-05  4.051556  0.0  -0.102427  -0.16927  -0.000261  4.016001  0.0
C  C76  1  0.43778982  0.32363828  0.96374428  1  0.006813  -0.000286  3.620429  0.0  -0.05263  -0.000254  3.875165  0.0  -0.048182  -0.000173  3.886914  0.0  -0.052849  -0.055459  -0.000357  3.867151  0.0
C  C77  1  0.56221020  0.67636225  0.03625562  1  0.006784  -0.000289  3.620433  0.0  -0.052667  -0.000254  3.875183  0.0  -0.048219  -0.000173  3.886933  0.0  -0.052841  -0.055482  -0.000324  3.867165  0.0
C  C78  1  0.79401683  0.87303754  0.53116778  1  -0.081596  0.001662  3.785183  0.001  -0.094913  0.000222  4.034691  0.0  -0.097632  0.000207  4.057308  0.0  -0.106136  -0.093031  0.000314  4.019678  0.0
C  C79  1  0.20598595  0.12696298  0.46883169  1  -0.081545  0.0016  3.785213  0.001  -0.094854  0.000225  4.034729  0.0  -0.097569  0.000214  4.057342  0.0  -0.106098  -0.092951  0.000324  4.01969  0.0
C  C80  1  0.41568382  0.12750260  0.68437073  1  0.006288  -0.000418  3.622291  -0.001  -0.055408  -0.000333  3.880624  0.0  -0.051152  -0.000224  3.891992  0.0  -0.051462  -0.058124  -0.000443  3.873042  -0.001
C  C81  1  0.58431529  0.87249886  0.31562994  1  0.006245  -0.000412  3.622345  -0.001  -0.055299  -0.000332  3.880533  0.0  -0.051042  -0.000225  3.891899  0.0  -0.051488  -0.058066  -0.000516  3.872927  -0.001
C  C82  1  0.33237783  0.52297355  0.31711898  1  -0.082441  0.00193  3.777098  0.001  -0.098382  0.000103  4.034106  0.0  -0.100384  0.000253  4.055795  0.0  -0.102488  -0.097038  -7.5e-05  4.019648  0.0
C  C83  1  0.66762587  0.47702605  0.68287972  1  -0.082489  0.001897  3.777006  0.001  -0.09843  0.000102  4.034029  0.0  -0.100427  0.000249  4.055709  0.0  -0.102429  -0.097062  -3e-05  4.019567  0.0
C  C84  1  0.34995500  0.16828220  0.87646107  1  -0.100091  -0.000126  3.675951  0.0  -0.130776  -0.000121  3.924276  0.0  -0.132177  -7.8e-05  3.9398  0.0  -0.166928  -0.129602  -0.000186  3.913466  0.0
C  C85  1  0.65004501  0.83171739  0.12353983  1  -0.100089  -0.000105  3.675842  0.0  -0.130791  -0.000122  3.924252  0.0  -0.132197  -8e-05  3.939786  0.0  -0.166926  -0.129625  -0.000186  3.913434  0.0
C  C86  1  0.71548296  0.83962292  0.63623871  1  -0.077318  -0.00087  3.797205  -0.001  -0.090727  -0.000133  4.049052  0.0  -0.092993  -4.7e-05  4.072876  0.0  -0.106521  -0.089204  -0.000207  4.032905  0.0
C  C87  1  0.28451705  0.16037669  0.36375977  1  -0.077271  -0.000851  3.797332  -0.001  -0.090667  -0.000132  4.049166  0.0  -0.092933  -4.7e-05  4.072991  0.0  -0.106478  -0.089149  -0.000194  4.03298  0.0
C  C88  1  0.29225815  0.46462143  0.14786520  1  -0.145561  0.000653  3.737703  0.0  -0.166744  -0.000194  3.992918  0.0  -0.168875  1.2e-05  4.010249  0.0  -0.092258  -0.165264  -0.000393  3.981353  0.0
C  C89  1  0.70774002  0.53537910  0.85213499  1  -0.145541  0.000581  3.737745  0.0  -0.166716  -0.000196  3.992978  0.0  -0.168848  1.7e-05  4.01031  0.0  -0.092244  -0.165215  -0.000401  3.98137  0.0
C  C90  1  0.45970379  0.16240995  0.78309901  1  -0.126592  -0.00011  3.674271  0.0  -0.16708  -0.000173  3.930571  0.0  -0.168554  -0.000117  3.944162  0.0  -0.168006  -0.165962  -0.000272  3.921273  0.0
C  C91  1  0.54029624  0.83759057  0.21690250  1  -0.126575  -0.000128  3.674205  0.0  -0.167142  -0.000172  3.930554  0.0  -0.168615  -0.000115  3.944149  0.0  -0.168036  -0.166008  -0.000245  3.921262  0.0
C  C92  1  0.38572853  0.19248290  0.98304130  1  -0.131661  -7e-05  3.698814  0.0  -0.173937  -0.000152  3.961214  0.0  -0.175815  -0.000101  3.975218  0.0  -0.170028  -0.172409  -0.000233  3.951492  0.0
C  C93  1  0.61427148  0.80751669  0.01695960  1  -0.131661  -9.2e-05  3.69885  0.0  -0.173953  -0.000152  3.961278  0.0  -0.175833  -0.000101  3.975291  0.0  -0.17001  -0.172415  -0.000195  3.951562  0.0
C  C94  1  0.25596856  0.52131231  0.23758736  1  -0.065667  -0.001418  3.76768  -0.002  -0.080193  -0.000542  4.022912  -0.001  -0.081976  -0.000366  4.045112  -0.001  -0.095842  -0.078949  -0.000755  4.008164  -0.001
C  C95  1  0.74403240  0.47868915  0.76241221  1  -0.06563  -0.001391  3.76769  -0.002  -0.080148  -0.000542  4.022908  -0.001  -0.081932  -0.000369  4.04511  -0.001  -0.095781  -0.078886  -0.00073  4.008158  -0.001
Br  Br96  1  0.12218272  0.78093456  0.41752879  1  -0.017106  0.000314  1.448183  0.0  -0.015997  0.00025  1.733552  0.0  -0.019092  0.00035  1.727912  0.0  0.076595  -0.013632  0.000108  1.737668  0.0
Br  Br97  1  0.87781630  0.21906134  0.58246978  1  -0.017038  0.000314  1.44819  0.0  -0.015939  0.00025  1.733538  0.0  -0.019035  0.000351  1.7279  0.0  0.076608  -0.013612  6.2e-05  1.737681  0.0
Br  Br98  1  0.91393399  0.91542306  0.78703835  1  -0.001283  0.000204  1.388221  0.0  0.007688  0.000135  1.656159  0.0  0.005981  0.000251  1.647982  0.0  0.081301  0.008851  -0.000186  1.662071  0.0
Br  Br99  1  0.08606600  0.08457563  0.21296031  1  -0.00131  0.000212  1.388256  0.0  0.007672  0.000135  1.656194  0.0  0.005964  0.000251  1.648021  0.0  0.08135  0.0089  -0.000137  1.662096  0.0
Br  Br100  1  0.75725638  0.13103173  0.90146781  1  -0.029577  -5.5e-05  1.415886  0.0  -0.027359  -0.000208  1.710051  0.0  -0.029934  -7.5e-05  1.701733  0.0  0.077782  -0.025642  -0.000441  1.716102  -0.001
Br  Br101  1  0.24274363  0.86896788  0.09853148  1  -0.029554  -5.4e-05  1.415924  0.0  -0.027363  -0.000208  1.710094  0.0  -0.029935  -7.5e-05  1.701766  0.0  0.077848  -0.025573  -0.00035  1.716168  -0.001
Br  Br102  1  0.91789336  0.69238649  0.28079624  1  -0.009077  5.6e-05  1.315961  0.0  -0.00347  -7.9e-05  1.565803  0.0  -0.005108  2.8e-05  1.556906  0.0  0.074172  -0.002312  -0.000207  1.572226  0.0
Br  Br103  1  0.08210199  0.30761034  0.71920594  1  -0.009069  5.9e-05  1.315979  0.0  -0.003471  -7.9e-05  1.565823  0.0  -0.005107  2.7e-05  1.556924  0.0  0.074158  -0.002309  -0.000211  1.572261  0.0
N  N104  1  0.47500499  0.34872035  0.06348537  1  -0.118504  -0.001912  3.517243  -0.003  -0.029953  -0.002444  3.739471  -0.004  -0.046277  -0.001794  3.762585  -0.003  -0.243305  -0.019273  -0.002949  3.724022  -0.004
N  N105  1  0.52499412  0.65128110  0.93651529  1  -0.118464  -0.001922  3.517151  -0.003  -0.029897  -0.002444  3.739396  -0.004  -0.046223  -0.001794  3.762506  -0.003  -0.243278  -0.019201  -0.002945  3.723925  -0.004
N  N106  1  0.59450365  0.34829381  0.19129506  1  -0.442165  -0.03672  3.30135  -0.055  -0.405467  -0.027483  3.629548  -0.031  -0.436597  -0.021351  3.637745  -0.023  -0.368191  -0.382596  -0.032845  3.624454  -0.038
N  N107  1  0.40549634  0.65170487  0.80870441  1  -0.442226  -0.03673  3.301334  -0.055  -0.405578  -0.027486  3.629494  -0.031  -0.436699  -0.021352  3.63768  -0.023  -0.368285  -0.382786  -0.032955  3.624442  -0.038
N  N108  1  0.63975723  0.17093428  0.42500145  1  -0.440053  -0.040999  3.292591  -0.065  -0.403437  -0.030034  3.618187  -0.039  -0.435746  -0.023837  3.629582  -0.03  -0.364919  -0.379682  -0.035593  3.610399  -0.046
N  N109  1  0.36024184  0.82906439  0.57499978  1  -0.440014  -0.040973  3.292543  -0.065  -0.403389  -0.030033  3.618107  -0.039  -0.435699  -0.023837  3.629502  -0.03  -0.36476  -0.379482  -0.035352  3.61027  -0.046
N  N110  1  0.51624772  0.11925600  0.59250904  1  -0.1149  -0.002091  3.514862  -0.004  -0.024831  -0.002332  3.736659  -0.004  -0.041507  -0.001725  3.760213  -0.003  -0.23843  -0.013894  -0.002901  3.720902  -0.005
N  N111  1  0.48375230  0.88074453  0.40749087  1  -0.11493  -0.002087  3.514828  -0.004  -0.024851  -0.002332  3.736618  -0.004  -0.041526  -0.001725  3.760174  -0.003  -0.238378  -0.013857  -0.002895  3.720798  -0.005
O  O112  1  0.79010319  0.14274240  0.19743631  1  -0.63278  -0.051616  2.051311  -0.089  -0.596204  -0.037372  2.333885  -0.058  -0.639446  -0.027864  2.323325  -0.044  -0.331072  -0.56198  -0.046762  2.338899  -0.072
O  O113  1  0.20989494  0.85725538  0.80256042  1  -0.632733  -0.051614  2.051267  -0.089  -0.596153  -0.037372  2.333854  -0.058  -0.639394  -0.027864  2.323289  -0.044  -0.33097  -0.561862  -0.046678  2.338889  -0.071
O  O114  1  0.87812228  0.29946310  0.05599005  1  -0.562096  -0.005049  1.868158  -0.008  -0.530003  -0.006695  2.072756  -0.011  -0.555192  -0.004769  2.066446  -0.008  -0.309826  -0.511028  -0.009121  2.076167  -0.014
O  O115  1  0.12187863  0.70053556  0.94401089  1  -0.562112  -0.005045  1.868141  -0.008  -0.530027  -0.006696  2.072751  -0.011  -0.555214  -0.00477  2.066431  -0.008  -0.30982  -0.510971  -0.009118  2.076164  -0.014
O  O116  1  0.85916071  0.35770524  0.31184584  1  -0.598533  -0.055353  2.0449  -0.091  -0.566864  -0.039596  2.318729  -0.058  -0.610722  -0.028702  2.30667  -0.041  -0.324462  -0.532175  -0.049988  2.325183  -0.073
O  O117  1  0.14084015  0.64228971  0.68815504  1  -0.598602  -0.055355  2.044821  -0.091  -0.566905  -0.039598  2.318645  -0.058  -0.610768  -0.028701  2.306582  -0.041  -0.324483  -0.532236  -0.049995  2.325113  -0.073
O  O118  1  0.70657378  0.44934529  0.41099796  1  -0.596929  -0.008716  1.910101  -0.015  -0.562354  -0.010758  2.135809  -0.018  -0.591035  -0.007861  2.129142  -0.013  -0.310761  -0.540363  -0.014021  2.139219  -0.022
O  O119  1  0.29342996  0.55065711  0.58899776  1  -0.596984  -0.008722  1.910009  -0.015  -0.562406  -0.010759  2.135718  -0.018  -0.591088  -0.00786  2.129047  -0.013  -0.310833  -0.540466  -0.014073  2.139158  -0.022
