# generated using pymatgen
data_Zn2H12C18N6O17
_symmetry_space_group_name_H-M   'P 1'
_cell_length_a   7.47280229
_cell_length_b   9.00186059
_cell_length_c   15.97673099
_cell_angle_alpha   85.18571666
_cell_angle_beta   87.20568271
_cell_angle_gamma   97.58626255
_symmetry_Int_Tables_number   1
_chemical_formula_structural   Zn2H12C18N6O17
_chemical_formula_sum   'Zn2 H12 C18 N6 O17'
_cell_volume   1059.62593887
_cell_formula_units_Z   1
loop_
 _symmetry_equiv_pos_site_id
 _symmetry_equiv_pos_as_xyz
  1  'x, y, z'
loop_
 _atom_site_type_symbol
 _atom_site_label
 _atom_site_symmetry_multiplicity
 _atom_site_fract_x
 _atom_site_fract_y
 _atom_site_fract_z
 _atom_site_occupancy
 _atom_site_pbe_bader_charge
 _atom_site_pbe_bader_spin_density
 _atom_site_pbe_cm5_charge
 _atom_site_pbe_ddec_charge
 _atom_site_pbe_ddec_spin_density
 _atom_site_pbe_ddec_sum_bond_order
 _atom_site_pbe_magmom
Zn  Zn0  1  0.68463180  0.54224266  0.49415867  1  1.291271  0  0.686096  0.817361  0  2.425364  0
Zn  Zn1  1  0.31078207  0.44790035  0.51079435  1  1.287574  0  0.682783  0.812262  0  2.41586  0
H  H2  1  0.72189369  0.68558058  0.91110660  1  0.142538  0  0.143734  0.129295  0  0.938777  0
H  H3  1  0.64460657  0.70555934  0.04810450  1  0.130476  0  0.145465  0.132339  0  0.920393  0
H  H4  1  0.23137858  0.45585271  0.07058046  1  0.099305  0  0.103019  0.11377  0  0.981736  0
H  H5  1  0.32644099  0.64204760  0.08056080  1  0.071151  0  0.106318  0.121007  0  0.970804  0
H  H6  1  0.40806240  0.69193400  0.93476700  1  0.093122  0  0.10824  0.12307  0  0.951097  0
H  H7  1  0.24767950  0.53288950  0.92487991  1  0.095526  0  0.101543  0.111838  0  1.015618  0
H  H8  1  0.40034620  0.24679181  0.09435377  1  0.076306  0  0.126031  0.086657  0  0.927032  0
H  H9  1  0.32970856  0.29226239  0.95789098  1  0.121953  0  0.138724  0.128564  0  0.939001  0
H  H10  1  0.29891290  0.97303660  0.49338860  1  0.168406  0  0.12818  0.161946  0  0.971446  0
H  H11  1  0.93195261  0.34224107  0.51581415  1  0.520393  0  0.327181  0.280216  0  0.935409  0
H  H12  1  0.06315262  0.64629617  0.49253311  1  0.487942  0  0.330764  0.283159  0  0.922631  0
H  H13  1  0.77651740  0.30343756  0.05048240  1  0.620468  0  0.298861  0.332058  0  0.989512  0
C  C14  1  0.45540919  0.78047490  0.48995073  1  1.600068  0  0.223702  0.655087  0  4.156966  0
C  C15  1  0.49477186  0.48393395  0.34288638  1  1.634249  0  0.226961  0.680528  0  4.210516  0
C  C16  1  0.54232265  0.20997441  0.51212381  1  1.650171  0  0.229499  0.597671  0  4.190617  0
C  C17  1  0.50186291  0.49853074  0.66273361  1  1.674015  0  0.228538  0.675383  0  4.220271  0
C  C18  1  0.67984063  0.59184553  0.04255843  1  0.179464  0  0.02089  -0.069295  0  3.683251  0
C  C19  1  0.34949383  0.53996218  0.05111565  1  -0.081906  0  -0.1544  -0.209483  0  3.849739  0
C  C20  1  0.37262781  0.57126190  0.95448651  1  -0.056005  0  -0.149255  -0.194489  0  3.806468  0
C  C21  1  0.50991674  0.49498839  0.75293842  1  0.223091  0  -0.028475  -0.140075  0  3.915709  0
C  C22  1  0.52032000  0.47965490  0.08614972  1  0.141773  0  0.003312  0.081735  0  3.87995  0
C  C23  1  0.70253181  0.57511346  0.94711146  1  0.208425  0  0.021186  -0.090609  0  3.703313  0
C  C24  1  0.52502167  0.48548173  0.91916203  1  0.138554  0  0.013528  0.131635  0  3.868521  0
C  C25  1  0.47522784  0.32410498  0.96330301  1  0.190645  0  0.011767  -0.125239  0  3.686025  0
C  C26  1  0.51646011  0.31580946  0.05920324  1  0.55779  0  0.014014  0.149923  0  3.834757  0
C  C27  1  0.52197496  0.48948385  0.82852559  1  -0.453351  0  -0.032342  -0.055097  0  4.041686  0
C  C28  1  0.51228481  0.47879733  0.17693211  1  -0.392521  0  -0.025085  -0.025442  0  4.036596  0
C  C29  1  0.49777674  0.48042781  0.25277442  1  0.160846  0  -0.039752  -0.171693  0  3.936202  0
C  C30  1  0.43455030  0.94090043  0.49454202  1  0.11484  0  -0.058038  -0.205201  0  3.805534  0
C  C31  1  0.57040084  0.04963155  0.50453957  1  0.107827  0  0.092096  -0.008834  0  3.841746  0
N  N32  1  0.03250454  0.43598052  0.51010784  1  -0.426906  0  -0.222571  -0.083238  0  3.134329  0
N  N33  1  0.96271691  0.55253997  0.49695968  1  -0.385567  0  -0.222323  -0.0858  0  3.133998  0
N  N34  1  0.86344776  0.60445935  0.08236012  1  0.474878  0  0.049365  0.503213  0  4.2027  0
N  N35  1  0.87215746  0.50971419  0.92026503  1  0.453116  0  0.053564  0.515983  0  4.166565  0
N  N36  1  0.76057048  0.02268281  0.50914856  1  0.425983  0  0.057537  0.530318  0  4.262667  0
N  N37  1  0.55726066  0.20059674  0.92272636  1  0.456611  0  0.048862  0.532792  0  4.194311  0
O  O38  1  0.61201922  0.74961073  0.47006132  1  -1.146315  0  -0.307695  -0.526267  0  2.312005  0
O  O39  1  0.31326079  0.68559087  0.50819931  1  -1.173277  0  -0.307087  -0.56485  0  2.301091  0
O  O40  1  0.64833986  0.49223111  0.37518338  1  -1.129852  0  -0.310799  -0.530612  0  2.261546  0
O  O41  1  0.34144826  0.47874380  0.38224949  1  -1.134639  0  -0.312109  -0.539736  0  2.258537  0
O  O42  1  0.67970878  0.30298289  0.52457320  1  -1.179941  0  -0.3058  -0.563133  0  2.351825  0
O  O43  1  0.38179899  0.23755720  0.50519577  1  -1.138438  0  -0.297246  -0.501486  0  2.30653  0
O  O44  1  0.64511605  0.55713950  0.61943232  1  -1.131853  0  -0.307901  -0.529872  0  2.273011  0
O  O45  1  0.35310123  0.44255820  0.63504325  1  -1.134999  0  -0.308867  -0.527083  0  2.255557  0
O  O46  1  0.88760343  0.51774826  0.14273339  1  -0.411968  0  -0.086427  -0.270164  0  1.963991  0
O  O47  1  0.97472246  0.70964821  0.04875311  1  -0.45927  0  -0.133975  -0.325576  0  1.887433  0
O  O48  1  0.93219393  0.41674840  0.97014703  1  -0.489991  0  -0.119229  -0.337154  0  2.031692  0
O  O49  1  0.94121830  0.55510114  0.85015622  1  -0.396344  0  -0.082547  -0.26034  0  1.905243  0
O  O50  1  0.85974481  0.06119139  0.44462143  1  -0.431115  0  -0.126932  -0.318053  0  1.857505  0
O  O51  1  0.80770562  0.97249831  0.57763907  1  -0.42934  0  -0.122251  -0.308578  0  1.855947  0
O  O52  1  0.66659643  0.24480084  0.07877875  1  -1.12224  0  -0.40312  -0.473145  0  2.231422  0
O  O53  1  0.69710452  0.23479904  0.87708927  1  -0.444223  0  -0.118457  -0.314476  0  1.951604  0
O  O54  1  0.47669731  0.07203045  0.94040373  1  -0.448721  0  -0.139077  -0.33279  0  1.866652  0
