# generated using pymatgen
data_Zn4H26C30S2O17
_symmetry_space_group_name_H-M   'P 1'
_cell_length_a   17.88115733
_cell_length_b   18.57665438
_cell_length_c   19.54853988
_cell_angle_alpha   118.99994401
_cell_angle_beta   116.54447026
_cell_angle_gamma   89.93084879
_symmetry_Int_Tables_number   1
_chemical_formula_structural   Zn4H26C30S2O17
_chemical_formula_sum   'Zn8 H52 C60 S4 O34'
_cell_volume   4884.24145748
_cell_formula_units_Z   2
loop_
 _symmetry_equiv_pos_site_id
 _symmetry_equiv_pos_as_xyz
  1  'x, y, z'
loop_
 _atom_site_type_symbol
 _atom_site_label
 _atom_site_symmetry_multiplicity
 _atom_site_fract_x
 _atom_site_fract_y
 _atom_site_fract_z
 _atom_site_occupancy
 _atom_site_pbe_bader_charge
 _atom_site_pbe_bader_spin_density
 _atom_site_pbe_cm5_charge
 _atom_site_pbe_ddec_charge
 _atom_site_pbe_ddec_spin_density
 _atom_site_pbe_ddec_sum_bond_order
 _atom_site_pbe_magmom
Zn  Zn0  1  0.87028819  0.45440099  0.92248152  1  1.294233  0  0.672414  0.947142  0  2.392157  0
Zn  Zn1  1  0.03959280  0.44983290  0.07021114  1  1.317793  0  0.676641  0.965482  0  2.374282  0
Zn  Zn2  1  0.02546327  0.61884330  0.06153987  1  1.309551  0  0.672042  0.945293  0  2.407722  0
Zn  Zn3  1  0.04934272  0.45908981  0.91294499  1  1.323732  0  0.679512  0.978324  0  2.315506  0
Zn  Zn4  1  0.62196095  0.02436330  0.05842547  1  1.295294  0  0.672776  0.9486  0  2.393176  0
Zn  Zn5  1  0.45323570  0.87201239  0.91919171  1  1.295551  0  0.672511  0.945533  0  2.407597  0
Zn  Zn6  1  0.46288009  0.04204425  0.91391903  1  1.311428  0  0.677609  0.96691  0  2.373688  0
Zn  Zn7  1  0.44534506  0.04079609  0.07224287  1  1.319045  0  0.679318  0.977607  0  2.315289  0
H  H8  1  0.79200503  0.68545998  0.88381900  1  0.021485  0  0.092709  0.087629  0  0.978976  0
H  H9  1  0.86527929  0.77341058  0.99539096  1  0.037815  0  0.095611  0.096597  0  0.97793  0
H  H10  1  0.76391989  0.84998740  0.96690962  1  0.05147  0  0.094888  0.095261  0  0.983237  0
H  H11  1  0.68349014  0.75569947  0.86597984  1  0.024867  0  0.093558  0.089733  0  0.973109  0
H  H12  1  0.79467643  0.87839499  0.11862022  1  0.070599  0  0.096736  0.101818  0  0.97386  0
H  H13  1  0.71927441  0.82494378  0.12551124  1  0.012975  0  0.090693  0.08423  0  0.979553  0
H  H14  1  0.87407906  0.78101287  0.13220047  1  0.043222  0  0.096095  0.10065  0  0.983628  0
H  H15  1  0.78690325  0.71572045  0.11452973  1  0.016328  0  0.090678  0.085304  0  0.977076  0
H  H16  1  0.67091429  0.58782677  0.86109531  1  0.059196  0  0.094438  0.09619  0  0.973769  0
H  H17  1  0.67762855  0.58977889  0.95447954  1  0.02497  0  0.092423  0.091371  0  0.980525  0
H  H18  1  0.59925666  0.69161603  0.97748589  1  0.029325  0  0.090408  0.087182  0  0.977733  0
H  H19  1  0.57485147  0.67271799  0.87155379  1  0.04339  0  0.095236  0.098853  0  0.979382  0
H  H20  1  0.09462387  0.19236664  0.89318828  1  0.01073  0  0.092448  0.086809  0  0.980376  0
H  H21  1  0.13344573  0.22696311  0.00791837  1  0.028633  0  0.094635  0.095003  0  0.978382  0
H  H22  1  0.21038545  0.12382916  0.98832048  1  0.022456  0  0.09414  0.093411  0  0.98363  0
H  H23  1  0.18539145  0.10301182  0.88068576  1  0.047083  0  0.09274  0.08932  0  0.976447  0
H  H24  1  0.33083269  0.25325004  0.13033122  1  0.041769  0  0.095844  0.098229  0  0.977098  0
H  H25  1  0.40668493  0.30890600  0.12580910  1  0.045072  0  0.090571  0.084441  0  0.980224  0
H  H26  1  0.25927557  0.35990310  0.13642727  1  0.025573  0  0.095413  0.09884  0  0.985577  0
H  H27  1  0.32426607  0.40299469  0.11127253  1  0.010589  0  0.090222  0.085071  0  0.977827  0
H  H28  1  0.18593992  0.26010909  0.85870432  1  0.039577  0  0.093447  0.094672  0  0.975043  0
H  H29  1  0.27158715  0.35401416  0.94665037  1  0.018686  0  0.091545  0.090172  0  0.980567  0
H  H30  1  0.37236652  0.27573924  0.96914816  1  0.041372  0  0.090033  0.08706  0  0.978288  0
H  H31  1  0.29023610  0.18402573  0.86941686  1  0.030869  0  0.094096  0.096403  0  0.983137  0
H  H32  1  0.82269437  0.17963996  0.90568618  1  0.010015  0  0.091643  0.086359  0  0.977658  0
H  H33  1  0.73734371  0.21627578  0.85240913  1  0.055225  0  0.095816  0.097216  0  0.980966  0
H  H34  1  0.63667255  0.13167707  0.84807886  1  0.035367  0  0.096816  0.100266  0  0.974288  0
H  H35  1  0.71927063  0.08489248  0.88635884  1  0.012543  0  0.092305  0.086449  0  0.980025  0
H  H36  1  0.60480505  0.25115549  0.95903295  1  0.052128  0  0.094937  0.097015  0  0.985438  0
H  H37  1  0.67856525  0.30220639  0.07720847  1  0.034963  0  0.090704  0.085771  0  0.977709  0
H  H38  1  0.69106750  0.33451735  0.94758561  1  0.051903  0  0.095792  0.099852  0  0.977181  0
H  H39  1  0.75525936  0.39460749  0.06761364  1  0.02282  0  0.09109  0.085259  0  0.979691  0
H  H40  1  0.91585727  0.26384213  0.07919036  1  0.030283  0  0.093164  0.094112  0  0.982762  0
H  H41  1  0.88073266  0.34384158  0.14389630  1  0.036663  0  0.092817  0.091533  0  0.973966  0
H  H42  1  0.80025659  0.23745776  0.13491243  1  0.03752  0  0.093254  0.094156  0  0.979387  0
H  H43  1  0.82264351  0.15637066  0.05663844  1  0.034794  0  0.092503  0.092054  0  0.976076  0
H  H44  1  0.08345959  0.71182597  0.89862708  1  0.030201  0  0.092111  0.086468  0  0.979601  0
H  H45  1  0.13537356  0.63767902  0.85145956  1  0.041416  0  0.096614  0.098635  0  0.972049  0
H  H46  1  0.20679434  0.74675969  0.85618825  1  0.041532  0  0.096101  0.098747  0  0.983623  0
H  H47  1  0.17117813  0.82466133  0.92392238  1  0.018725  0  0.092043  0.087639  0  0.976397  0
H  H48  1  0.33225659  0.69675590  0.93209696  1  0.044766  0  0.096333  0.101877  0  0.976604  0
H  H49  1  0.40118026  0.75700501  0.05150778  1  0.025954  0  0.090332  0.084333  0  0.981491  0
H  H50  1  0.26203453  0.60656770  0.95026726  1  0.061115  0  0.094951  0.097408  0  0.985399  0
H  H51  1  0.31774718  0.67905724  0.06972018  1  0.033017  0  0.089835  0.084674  0  0.978427  0
H  H52  1  0.16222438  0.81348855  0.07169358  1  0.04046  0  0.092683  0.093803  0  0.977944  0
H  H53  1  0.24817816  0.79154750  0.14221131  1  0.014308  0  0.092168  0.091419  0  0.979162  0
H  H54  1  0.35203352  0.87378883  0.14755249  1  0.019353  0  0.092401  0.090984  0  0.974627  0
H  H55  1  0.26795629  0.91216332  0.09717276  1  0.038246  0  0.093722  0.095122  0  0.981387  0
H  H56  1  0.72757911  0.36291343  0.72777702  1  0.644289  0  0.30047  0.35549  0  0.991641  0
H  H57  1  0.76882793  0.12599519  0.25430668  1  0.665947  0  0.300348  0.355673  0  0.990659  0
H  H58  1  0.13095847  0.76780710  0.26071030  1  0.627681  0  0.301214  0.357278  0  0.987928  0
H  H59  1  0.36337449  0.72572493  0.72086201  1  0.643728  0  0.300944  0.354188  0  0.993049  0
C  C60  1  0.86300236  0.35502615  0.99934099  1  1.537871  0  0.236821  0.603303  0  4.094622  0
C  C61  1  0.11755300  0.62740842  0.23733641  1  1.468645  0  0.224299  0.610367  0  4.196618  0
C  C62  1  0.84482834  0.62666398  0.99240956  1  1.514068  0  0.23749  0.607211  0  4.092603  0
C  C63  1  0.13575005  0.63782333  0.99218806  1  1.543055  0  0.238104  0.607524  0  4.088551  0
C  C64  1  0.87091646  0.37276537  0.74629259  1  1.520533  0  0.225174  0.614637  0  4.185609  0
C  C65  1  0.14548751  0.36336663  0.99220344  1  1.528741  0  0.238105  0.608606  0  4.085283  0
C  C66  1  0.62743209  0.84598252  0.98734679  1  1.5135  0  0.237115  0.605546  0  4.093177  0
C  C67  1  0.37537638  0.86652154  0.74510262  1  1.541862  0  0.224327  0.611641  0  4.185964  0
C  C68  1  0.64372870  0.12634789  0.98822738  1  1.525963  0  0.237265  0.605289  0  4.092775  0
C  C69  1  0.36190411  0.14086548  0.99449913  1  1.537549  0  0.237897  0.60851  0  4.083193  0
C  C70  1  0.62602414  0.11992208  0.23667304  1  1.592806  0  0.225352  0.614059  0  4.188533  0
C  C71  1  0.35031099  0.86713520  0.99898292  1  1.542488  0  0.236994  0.60636  0  4.086478  0
C  C72  1  0.72905831  0.29385356  0.58598841  1  0.087681  0  -0.019187  -0.095654  0  3.972963  0
C  C73  1  0.76838799  0.19976332  0.39682565  1  -0.030592  0  -0.020363  -0.097698  0  3.975216  0
C  C74  1  0.81955067  0.32361173  0.64622118  1  -0.154546  0  -0.022371  -0.167184  0  3.938462  0
C  C75  1  0.67791582  0.17024831  0.33675913  1  -0.176516  0  -0.022649  -0.167179  0  3.941994  0
C  C76  1  0.78603835  0.24513076  0.48768039  1  -0.101959  0  -0.011961  -0.021843  0  4.055574  0
C  C77  1  0.71157810  0.24908023  0.49524874  1  -0.193375  0  -0.012223  -0.020818  0  4.058275  0
C  C78  1  0.20149112  0.76719270  0.40004951  1  0.060512  0  -0.018711  -0.094453  0  3.978006  0
C  C79  1  0.29156663  0.72722216  0.58223780  1  0.083214  0  -0.018651  -0.095776  0  3.98105  0
C  C80  1  0.16820039  0.67831034  0.33720600  1  -0.106625  0  -0.02207  -0.165315  0  3.947513  0
C  C81  1  0.32489257  0.81609093  0.64525295  1  -0.228811  0  -0.022216  -0.166569  0  3.94538  0
C  C82  1  0.24649517  0.71051598  0.49301158  1  -0.168426  0  -0.013321  -0.022076  0  4.064095  0
C  C83  1  0.24643359  0.78410036  0.48940933  1  -0.1647  0  -0.012416  -0.022628  0  4.059258  0
C  C84  1  0.79837581  0.73160394  0.94987543  1  -0.007644  0  -0.154258  -0.170909  0  3.854591  0
C  C85  1  0.73142476  0.78384486  0.93838731  1  -0.045941  0  -0.15505  -0.171218  0  3.849987  0
C  C86  1  0.68305299  0.78431363  0.98742350  1  0.037804  0  -0.016035  0.01856  0  3.816402  0
C  C87  1  0.75181457  0.81563958  0.08672245  1  -0.030695  0  -0.156335  -0.171812  0  3.860071  0
C  C88  1  0.80399092  0.74941190  0.08797368  1  -0.025621  0  -0.15658  -0.172723  0  3.857828  0
C  C89  1  0.78333070  0.68285063  0.99036908  1  0.052451  0  -0.016943  0.01672  0  3.816498  0
C  C90  1  0.68741931  0.63098193  0.93196171  1  -0.046229  0  -0.162512  -0.177785  0  3.881079  0
C  C91  1  0.62890728  0.69250995  0.93915985  1  -0.016437  0  -0.162983  -0.178697  0  3.878791  0
C  C92  1  0.15392098  0.21755682  0.95958252  1  -0.018031  0  -0.154983  -0.170682  0  3.850311  0
C  C93  1  0.21072852  0.15420997  0.95222283  1  -0.012902  0  -0.155167  -0.172307  0  3.853867  0
C  C94  1  0.30545088  0.20238839  0.99374350  1  0.023712  0  -0.015808  0.019258  0  3.805059  0
C  C95  1  0.33716937  0.27800766  0.09176752  1  -0.05274  0  -0.156772  -0.17033  0  3.860363  0
C  C96  1  0.28359882  0.34324248  0.08960279  1  0.012327  0  -0.158404  -0.175042  0  3.858263  0
C  C97  1  0.20595718  0.30552740  0.99221682  1  0.052217  0  -0.015324  0.021168  0  3.809852  0
C  C98  1  0.24066246  0.29172865  0.92896408  1  -0.016988  0  -0.16322  -0.179509  0  3.885338  0
C  C99  1  0.30603989  0.23742010  0.93691502  1  -0.02543  0  -0.163545  -0.178482  0  3.87928  0
C  C100  1  0.76879856  0.20680707  0.90907314  1  -0.034742  0  -0.154685  -0.170578  0  3.849278  0
C  C101  1  0.70298718  0.14606995  0.90244125  1  0.003601  0  -0.154596  -0.171037  0  3.853066  0
C  C102  1  0.70502872  0.18833230  0.99392481  1  0.047002  0  -0.01614  0.019815  0  3.815119  0
C  C103  1  0.67372517  0.26974965  0.01041125  1  -0.057756  0  -0.157763  -0.175271  0  3.860444  0
C  C104  1  0.72970410  0.32951380  0.00651096  1  -0.035754  0  -0.15711  -0.172482  0  3.860556  0
C  C105  1  0.80648386  0.29473565  0.00011722  1  0.043599  0  -0.016642  0.017582  0  3.817487  0
C  C106  1  0.85752830  0.28230303  0.07917712  1  -0.021357  0  -0.163036  -0.177894  0  3.880197  0
C  C107  1  0.79899038  0.21369561  0.07077410  1  -0.022881  0  -0.163046  -0.177699  0  3.880208  0
C  C108  1  0.14721873  0.70099539  0.90951370  1  -0.031813  0  -0.153128  -0.169811  0  3.850119  0
C  C109  1  0.20181155  0.77206719  0.91725709  1  -0.019261  0  -0.155508  -0.1738  0  3.851564  0
C  C110  1  0.29429354  0.80834237  0.00186709  1  0.053573  0  -0.015668  0.021418  0  3.810045  0
C  C111  1  0.33275781  0.73226311  0.99649589  1  -0.030264  0  -0.157765  -0.176636  0  3.85984  0
C  C112  1  0.27951330  0.67394598  0.00434449  1  -0.05441  0  -0.15819  -0.173925  0  3.867452  0
C  C113  1  0.19609572  0.70076840  0.99783811  1  0.041825  0  -0.016101  0.018743  0  3.810034  0
C  C114  1  0.22122178  0.79213378  0.07982757  1  -0.010822  0  -0.16245  -0.175433  0  3.877172  0
C  C115  1  0.28746532  0.85350983  0.08775469  1  -0.013572  0  -0.162885  -0.17999  0  3.885238  0
C  C116  1  0.65178792  0.30047417  0.59825103  1  1.579919  0  0.221336  0.575264  0  4.162043  0
C  C117  1  0.84528250  0.19358319  0.38398962  1  1.571672  0  0.221373  0.576681  0  4.160729  0
C  C118  1  0.19925154  0.84286475  0.39099638  1  1.578898  0  0.220204  0.572967  0  4.162357  0
C  C119  1  0.29438406  0.65118682  0.59074615  1  1.589086  0  0.222349  0.578214  0  4.16356  0
S  S120  1  0.87985075  0.29696222  0.59182013  1  0.370094  0  0.127161  0.201165  0  2.83757  0
S  S121  1  0.61770012  0.19805706  0.39123436  1  0.404557  0  0.127603  0.202121  0  2.844753  0
S  S122  1  0.19170823  0.61846633  0.38708502  1  0.389947  0  0.127814  0.20232  0  2.851232  0
S  S123  1  0.30136332  0.87607745  0.59547611  1  0.393247  0  0.127666  0.201746  0  2.843212  0
O  O124  1  0.99702354  0.49417227  0.99042746  1  -1.224499  0  -0.572712  -1.026623  0  2.54525  0
O  O125  1  0.82351316  0.37561831  0.94128221  1  -1.172158  0  -0.317218  -0.550626  0  2.357289  0
O  O126  1  0.09919479  0.54653993  0.19880941  1  -1.138147  0  -0.304897  -0.5225  0  2.353073  0
O  O127  1  0.92600062  0.66554442  0.04569652  1  -1.170096  0  -0.317498  -0.552735  0  2.359847  0
O  O128  1  0.94472011  0.37984582  0.05481957  1  -1.176587  0  -0.309169  -0.540666  0  2.355386  0
O  O129  1  0.81220662  0.54567458  0.94043445  1  -1.163822  0  -0.310624  -0.54087  0  2.354541  0
O  O130  1  0.09485520  0.66681022  0.19517568  1  -1.176843  0  -0.301454  -0.533031  0  2.389481  0
O  O131  1  0.10194042  0.67026433  0.04185937  1  -1.186595  0  -0.315129  -0.546881  0  2.380512  0
O  O132  1  0.95327769  0.39349552  0.78356739  1  -1.158874  0  -0.30496  -0.525104  0  2.327946  0
O  O133  1  0.12141728  0.55786068  0.93714459  1  -1.173729  0  -0.314185  -0.551856  0  2.325345  0
O  O134  1  0.82955092  0.39155126  0.78981267  1  -1.170578  0  -0.303812  -0.53685  0  2.397536  0
O  O135  1  0.12163261  0.38534589  0.05061538  1  -1.172561  0  -0.317151  -0.554602  0  2.355732  0
O  O136  1  0.12183074  0.38426170  0.93387437  1  -1.172928  0  -0.31141  -0.546131  0  2.342249  0
O  O137  1  0.49530359  0.99657523  0.99252930  1  -1.200705  0  -0.572851  -1.026996  0  2.546774  0
O  O138  1  0.66798636  0.92527343  0.03426096  1  -1.175909  0  -0.316261  -0.551567  0  2.356577  0
O  O139  1  0.39716168  0.82648978  0.78665047  1  -1.167306  0  -0.302586  -0.533024  0  2.390978  0
O  O140  1  0.56297928  0.10488777  0.92980828  1  -1.181757  0  -0.315626  -0.552669  0  2.3463  0
O  O141  1  0.54501553  0.81499374  0.94096617  1  -1.152022  0  -0.31163  -0.541299  0  2.35817  0
O  O142  1  0.67701488  0.10014933  0.04187547  1  -1.155669  0  -0.312231  -0.542047  0  2.36702  0
O  O143  1  0.39456971  0.94749803  0.78439549  1  -1.151231  0  -0.304211  -0.522323  0  2.34642  0
O  O144  1  0.39018996  0.11730343  0.93968041  1  -1.164768  0  -0.3117  -0.544746  0  2.368751  0
O  O145  1  0.54396900  0.10601390  0.20043367  1  -1.157327  0  -0.304844  -0.524479  0  2.333856  0
O  O146  1  0.37599836  0.11681600  0.04940783  1  -1.178447  0  -0.316156  -0.554967  0  2.330069  0
O  O147  1  0.66644076  0.09280038  0.19221176  1  -1.18497  0  -0.303177  -0.53614  0  2.390598  0
O  O148  1  0.36455762  0.83066162  0.93290896  1  -1.180657  0  -0.320004  -0.555977  0  2.367332  0
O  O149  1  0.37858498  0.94695604  0.06033743  1  -1.179575  0  -0.309199  -0.543082  0  2.329362  0
O  O150  1  0.66341955  0.34144664  0.68170777  1  -1.145561  0  -0.345026  -0.471292  0  2.238692  0
O  O151  1  0.57883647  0.26760954  0.53009189  1  -1.119855  0  -0.288876  -0.459118  0  2.074555  0
O  O152  1  0.83303056  0.15071293  0.30023294  1  -1.171874  0  -0.344783  -0.471706  0  2.238702  0
O  O153  1  0.91845217  0.22871394  0.45187418  1  -1.117103  0  -0.288714  -0.459097  0  2.069405  0
O  O154  1  0.15741968  0.83088048  0.30860310  1  -1.129318  0  -0.343872  -0.470703  0  2.237277  0
O  O155  1  0.23652789  0.91477847  0.46056707  1  -1.115256  0  -0.288093  -0.45774  0  2.070159  0
O  O156  1  0.33760255  0.66263512  0.67281671  1  -1.156735  0  -0.344798  -0.470437  0  2.241531  0
O  O157  1  0.25666814  0.57944735  0.52094409  1  -1.113355  0  -0.289359  -0.460591  0  2.071758  0
