# generated using pymatgen
data_CuH10C7N8
_symmetry_space_group_name_H-M   'P 1'
_cell_length_a   7.47247293
_cell_length_b   7.45901086
_cell_length_c   20.74700000
_cell_angle_alpha   84.45027385
_cell_angle_beta   84.46030328
_cell_angle_gamma   67.99852619
_symmetry_Int_Tables_number   1
_chemical_formula_structural   CuH10C7N8
_chemical_formula_sum   'Cu4 H40 C28 N32'
_cell_volume   1064.85991494
_cell_formula_units_Z   4
loop_
 _symmetry_equiv_pos_site_id
 _symmetry_equiv_pos_as_xyz
  1  'x, y, z'
loop_
 _atom_site_type_symbol
 _atom_site_label
 _atom_site_symmetry_multiplicity
 _atom_site_fract_x
 _atom_site_fract_y
 _atom_site_fract_z
 _atom_site_occupancy
 _atom_site_hle17_ddec_charge
 _atom_site_hle17_ddec_spin_density
 _atom_site_hle17_ddec_sum_bond_order
 _atom_site_hle17_magmom
 _atom_site_hse06_10hf_ddec_charge
 _atom_site_hse06_10hf_ddec_spin_density
 _atom_site_hse06_10hf_ddec_sum_bond_order
 _atom_site_hse06_10hf_magmom
 _atom_site_hse06_ddec_charge
 _atom_site_hse06_ddec_spin_density
 _atom_site_hse06_ddec_sum_bond_order
 _atom_site_hse06_magmom
 _atom_site_pbe_bader_charge
 _atom_site_pbe_bader_spin_density
 _atom_site_pbe_cm5_charge
 _atom_site_pbe_ddec_charge
 _atom_site_pbe_ddec_spin_density
 _atom_site_pbe_ddec_sum_bond_order
 _atom_site_pbe_magmom
Cu  Cu0  1  0.82595262  0.55495346  0.68163890  1  0.902446  -0.716933  1.924539  -0.503  0.888018  -0.803157  2.338411  -0.618  0.963772  -0.872995  2.272976  -0.695  1.047591  -0.569153  0.79597  0.843864  -0.754097  2.381924  -0.569
Cu  Cu1  1  0.55495455  0.82553689  0.18155114  1  0.902403  -0.717018  1.92442  -0.503  0.887889  -0.803091  2.338396  -0.618  0.963743  -0.872815  2.272723  -0.695  1.047173  -0.569177  0.795832  0.84386  -0.754086  2.381675  -0.569
Cu  Cu2  1  0.17405979  0.44503306  0.31836181  1  0.902403  0.716939  1.924661  0.503  0.887961  0.803152  2.33856  0.618  0.963759  0.872988  2.273055  0.695  1.047595  0.569173  0.79593  0.843804  0.754126  2.3821  0.569
Cu  Cu3  1  0.44503771  0.17445688  0.81844424  1  0.902294  0.717002  1.92452  0.503  0.88776  0.803091  2.338557  0.618  0.963668  0.872817  2.272808  0.695  1.04717  0.569176  0.795751  0.843802  0.754082  2.381728  0.569
H  H4  1  0.48235888  0.80725233  0.67540409  1  0.293219  0.00096  0.907643  0.002  0.278031  -0.000331  0.978644  0.0  0.282843  -4.4e-05  0.977984  0.0  0.456173  -0.000116  0.294622  0.27453  -0.000553  0.979541  0.0
H  H5  1  0.80773341  0.48171812  0.17557304  1  0.29331  0.000954  0.907167  0.002  0.278299  -0.000334  0.977855  0.0  0.283108  -4.7e-05  0.977185  0.0  0.456583  -0.000133  0.29469  0.274798  -0.000556  0.978765  0.0
H  H6  1  0.51764764  0.19274289  0.32460375  1  0.29336  -0.000957  0.907608  -0.002  0.278147  0.00033  0.978648  0.0  0.282965  4.3e-05  0.977976  0.0  0.455914  0.000116  0.294687  0.274646  0.000552  0.979545  0.0
H  H7  1  0.19223333  0.51828290  0.82442153  1  0.293172  -0.000951  0.9075  -0.002  0.278136  0.000334  0.978199  0.0  0.282947  4.7e-05  0.977529  0.0  0.456105  0.000131  0.294579  0.274635  0.000556  0.97911  0.0
H  H8  1  0.60549630  0.89488868  0.71591051  1  0.312023  0.001036  0.88647  0.002  0.298836  -0.000361  0.951945  0.0  0.302437  -0.000105  0.952498  0.001  0.476316  0.000278  0.299805  0.296068  -0.000542  0.952173  0.0
H  H9  1  0.89432266  0.60605547  0.21596377  1  0.312013  0.001037  0.886719  0.002  0.298653  -0.000356  0.952382  0.0  0.302258  -0.000101  0.952935  0.001  0.474575  0.000289  0.29976  0.295883  -0.000538  0.952612  0.0
H  H10  1  0.39451880  0.10509784  0.28409590  1  0.311979  -0.001032  0.886657  -0.002  0.298823  0.00036  0.952079  0.0  0.302427  0.000104  0.952631  -0.001  0.476449  -0.00028  0.299762  0.296053  0.000542  0.952308  0.0
H  H11  1  0.10565318  0.39392816  0.78403591  1  0.312076  -0.001039  0.886732  -0.002  0.29873  0.000356  0.952318  0.0  0.302334  0.000101  0.952874  -0.001  0.474363  -0.000288  0.299818  0.295962  0.000538  0.95255  0.0
H  H12  1  0.98948951  0.59241523  0.57089509  1  0.29922  0.001  0.928162  0.002  0.287787  -0.000117  0.991538  0.001  0.292934  0.000157  0.99077  0.001  0.482975  0.000311  0.286833  0.284101  -0.000338  0.992427  0.0
H  H13  1  0.59234445  0.98964150  0.07082286  1  0.299258  0.000989  0.928459  0.002  0.287863  -0.000125  0.991764  0.0  0.29302  0.00015  0.990986  0.001  0.480019  0.000292  0.286866  0.284165  -0.000346  0.992673  0.0
H  H14  1  0.01052243  0.40759449  0.42910725  1  0.299256  -0.001001  0.92826  -0.002  0.287806  0.000117  0.991643  -0.001  0.292953  -0.000157  0.990876  -0.001  0.483096  -0.000311  0.286853  0.284119  0.000337  0.992532  0.0
H  H15  1  0.40765644  0.01035806  0.92917539  1  0.299267  -0.000991  0.928425  -0.002  0.287879  0.000125  0.991738  0.0  0.293036  -0.000151  0.99096  -0.001  0.480065  -0.000292  0.286868  0.284181  0.000346  0.992649  0.0
H  H16  1  0.83045083  0.49356005  0.55989127  1  0.310273  0.000958  0.892867  0.002  0.297834  -0.000383  0.959265  0.0  0.303993  -0.000161  0.956327  0.001  0.466602  0.000243  0.296153  0.293419  -0.000543  0.96171  0.0
H  H17  1  0.49387641  0.83012615  0.05981396  1  0.310306  0.00096  0.893091  0.002  0.298098  -0.00038  0.959231  0.0  0.30425  -0.000158  0.956316  0.001  0.466301  0.000235  0.296331  0.293692  -0.000539  0.961652  0.0
H  H18  1  0.16956916  0.50644242  0.44010959  1  0.310305  -0.000955  0.892843  -0.002  0.297937  0.000382  0.95915  0.0  0.304097  0.00016  0.956206  -0.001  0.466327  -0.00024  0.296152  0.293523  0.000542  0.961597  0.0
H  H19  1  0.50611885  0.16987777  0.94018193  1  0.310254  -0.000963  0.89318  -0.002  0.298053  0.00038  0.959339  0.0  0.304203  0.000158  0.95643  -0.001  0.466238  -0.000234  0.296297  0.293646  0.00054  0.961761  0.0
H  H20  1  0.52511191  0.05613903  0.60382899  1  0.070232  -0.004573  0.927686  -0.006  0.08649  -0.002998  0.986006  -0.004  0.084225  -0.002096  0.988539  -0.003  0.065675  -0.006734  0.10593  0.087909  -0.003665  0.984349  -0.004
H  H21  1  0.05558573  0.52491536  0.10391386  1  0.070097  -0.004551  0.927128  -0.006  0.086088  -0.002983  0.985765  -0.004  0.083844  -0.002087  0.988294  -0.003  0.06787  -0.006681  0.105787  0.087497  -0.003648  0.984121  -0.004
H  H22  1  0.47488736  0.94385764  0.39617810  1  0.070119  0.004576  0.927816  0.006  0.086424  0.002997  0.986116  0.004  0.084159  0.002096  0.988646  0.003  0.066059  0.006731  0.105934  0.087843  0.003665  0.984459  0.004
H  H23  1  0.94440222  0.47507551  0.89608755  1  0.070069  0.004553  0.927118  0.006  0.086039  0.002984  0.985786  0.004  0.083787  0.002087  0.98831  0.003  0.067993  0.006683  0.105742  0.087449  0.00365  0.984141  0.004
H  H24  1  0.77086436  0.97339145  0.62256650  1  0.072588  -9.6e-05  0.924933  0.0  0.091241  -7.2e-05  0.978572  0.0  0.089265  -3.9e-05  0.981083  0.0  0.049777  -0.000548  0.108961  0.092391  -0.000106  0.976964  0.0
H  H25  1  0.97269462  0.77117299  0.12253854  1  0.072206  -9e-05  0.924978  0.0  0.090832  -6.7e-05  0.978679  0.0  0.088864  -3.5e-05  0.981198  0.0  0.048304  -0.000535  0.108984  0.091977  -0.0001  0.977078  0.0
H  H26  1  0.22913143  0.02661101  0.37744099  1  0.072567  0.0001  0.924852  0.0  0.091178  7.1e-05  0.978598  0.0  0.089199  3.9e-05  0.98111  0.0  0.050027  0.000547  0.108925  0.092328  0.000106  0.976989  0.0
H  H27  1  0.02729655  0.22881643  0.87746377  1  0.072146  8.8e-05  0.925008  0.0  0.090774  6.6e-05  0.978699  0.0  0.088802  3.5e-05  0.981214  0.0  0.047967  0.000536  0.108969  0.091922  0.0001  0.977096  0.0
H  H28  1  0.57910264  0.76306681  0.54968455  1  0.039583  0.000169  0.919257  0.0  0.05433  0.000149  0.976394  0.0  0.05359  9.9e-05  0.977401  0.0  0.059394  7.9e-05  0.108522  0.054681  0.000182  0.97582  0.0
H  H29  1  0.76317643  0.57848661  0.04971083  1  0.039173  0.000166  0.918973  0.0  0.054278  0.00015  0.975647  0.0  0.05353  0.0001  0.97665  0.0  0.059382  8.2e-05  0.108556  0.054617  0.000184  0.97509  0.0
H  H30  1  0.42090497  0.23693276  0.45031973  1  0.039686  -0.000168  0.919074  0.0  0.054385  -0.000149  0.976279  0.0  0.053642  -9.9e-05  0.977283  0.0  0.059251  -7.9e-05  0.108551  0.054736  -0.000182  0.975705  0.0
H  H31  1  0.23681911  0.42152020  0.95028301  1  0.039196  -0.000169  0.918966  0.0  0.054257  -0.000151  0.975601  0.0  0.053511  -0.0001  0.976605  0.0  0.059331  -8.1e-05  0.108605  0.054596  -0.000183  0.975046  0.0
H  H32  1  0.68759739  0.02302597  0.48574040  1  0.10995  -0.001329  0.962606  -0.002  0.126383  -0.000979  1.031421  -0.001  0.126701  -0.000653  1.032839  -0.001  0.00185  -0.002635  0.089137  0.126005  -0.001245  1.030555  -0.001
H  H33  1  0.02235232  0.68761581  0.98577524  1  0.110227  -0.001328  0.962806  -0.002  0.12649  -0.000983  1.031855  -0.001  0.126816  -0.000655  1.033277  -0.001  0.004424  -0.002644  0.089173  0.126089  -0.001249  1.031011  -0.001
H  H34  1  0.31240192  0.97698519  0.51426666  1  0.109927  0.001323  0.96259  0.002  0.126402  0.000978  1.031352  0.001  0.126724  0.000652  1.032771  0.001  0.001818  0.002633  0.089134  0.126024  0.001244  1.030486  0.001
H  H35  1  0.97764885  0.31238665  0.01422628  1  0.11024  0.00133  0.962809  0.002  0.126505  0.000983  1.031863  0.001  0.126832  0.000655  1.033281  0.001  0.004394  0.002645  0.089165  0.126103  0.00125  1.03102  0.001
H  H36  1  0.80756341  0.78520594  0.45858790  1  0.108646  0.00018  0.967329  0.0  0.126653  -1.6e-05  1.032077  0.0  0.126914  -2.6e-05  1.033671  0.0  0.049196  2.8e-05  0.087319  0.126371  -8e-06  1.031007  0.0
H  H37  1  0.78491398  0.80741463  0.95860177  1  0.108695  0.000187  0.967312  0.0  0.126807  -1.6e-05  1.031889  0.0  0.127087  -2.6e-05  1.033462  0.0  0.047537  2.8e-05  0.087582  0.126508  -7e-06  1.03083  0.0
H  H38  1  0.19244613  0.21480667  0.54141586  1  0.108661  -0.000188  0.967495  0.0  0.126653  1.5e-05  1.032253  0.0  0.126918  2.6e-05  1.033847  0.0  0.04906  -2.8e-05  0.087309  0.126359  7e-06  1.031197  0.0
H  H39  1  0.21509796  0.19259509  0.04139815  1  0.108708  -0.000181  0.967307  0.0  0.126818  1.5e-05  1.03189  0.0  0.127093  2.6e-05  1.033467  0.0  0.047442  -2.7e-05  0.087555  0.126517  8e-06  1.030832  0.0
H  H40  1  0.92618640  0.88333223  0.50767336  1  0.112121  0.000256  0.951911  0.0  0.132572  8.3e-05  1.013965  0.0  0.133533  6.3e-05  1.014149  0.0  0.039175  0.0001  0.091082  0.131776  9.6e-05  1.013891  0.0
H  H41  1  0.88254840  0.92655411  0.00766036  1  0.112264  0.000268  0.952192  0.0  0.13284  8.3e-05  1.013923  0.0  0.133796  6.4e-05  1.014117  0.0  0.045069  0.000101  0.091355  0.132041  9.7e-05  1.013858  0.0
H  H42  1  0.07381776  0.11668038  0.49233299  1  0.11224  -0.000264  0.951919  0.0  0.132649  -8.3e-05  1.014001  0.0  0.133614  -6.3e-05  1.014184  0.0  0.039038  -0.000101  0.0911  0.131852  -9.6e-05  1.013924  0.0
H  H43  1  0.11746297  0.07344256  0.99234148  1  0.112275  -0.000261  0.952315  0.0  0.13286  -8.4e-05  1.014017  0.0  0.133813  -6.4e-05  1.014213  0.0  0.045484  -9.9e-05  0.091338  0.13206  -9.6e-05  1.013952  0.0
C  C44  1  0.65205317  0.92597882  0.61543761  1  0.012742  2.7e-05  3.621257  0.003  -0.03962  -0.002274  3.882992  0.0  -0.033866  -0.001172  3.898621  0.001  0.280667  -0.003566  -0.072173  -0.043157  -0.003143  3.872481  0.0
C  C45  1  0.92555107  0.65201177  0.11546163  1  0.0137  2.8e-05  3.618574  0.003  -0.038567  -0.002268  3.880163  0.0  -0.032823  -0.001172  3.895735  0.001  0.256215  -0.003586  -0.071803  -0.042108  -0.003136  3.869691  0.0
C  C46  1  0.34795066  0.07401640  0.38457081  1  0.012973  -4.9e-05  3.621039  -0.003  -0.039434  0.002276  3.882852  0.0  -0.033677  0.001172  3.898473  -0.001  0.279934  0.003571  -0.072083  -0.042968  0.003144  3.872341  0.0
C  C47  1  0.07444495  0.34797910  0.88453854  1  0.013794  -2.7e-05  3.618833  -0.003  -0.038495  0.00227  3.880274  0.0  -0.032736  0.001169  3.895845  -0.001  0.256376  0.003588  -0.071746  -0.042039  0.003136  3.869807  0.0
C  C48  1  0.70760554  0.79081100  0.56018438  1  0.217525  0.000157  3.599066  0.003  0.20873  -0.001694  3.847916  0.0  0.214487  -0.000836  3.864154  0.001  0.289286  -0.002587  -0.001846  0.205024  -0.002381  3.836934  0.0
C  C49  1  0.79060174  0.70737409  0.06020018  1  0.217802  0.00019  3.597039  0.003  0.209267  -0.001698  3.845108  0.0  0.215051  -0.00084  3.861314  0.001  0.311724  -0.002605  -0.001855  0.205572  -0.002387  3.834119  0.0
C  C50  1  0.29240129  0.20919436  0.43982070  1  0.217575  -0.000165  3.598876  -0.003  0.20876  0.001693  3.847798  0.0  0.214524  0.000837  3.86403  -0.001  0.289736  0.002584  -0.001912  0.205053  0.002379  3.836816  0.0
C  C51  1  0.20939377  0.29262547  0.93979681  1  0.217702  -0.000176  3.597207  -0.003  0.209429  0.0017  3.84488  0.0  0.215203  0.000841  3.861082  -0.001  0.311702  0.002606  -0.001954  0.205734  0.002387  3.833892  0.0
C  C52  1  0.78621391  0.87572887  0.49937747  1  -0.350363  -0.005438  3.666461  -0.005  -0.430652  -0.00325  3.910557  -0.003  -0.433694  -0.002244  3.921806  -0.002  -0.037926  -0.00517  -0.247156  -0.428151  -0.00402  3.902711  -0.004
C  C53  1  0.87523670  0.78621595  0.99938631  1  -0.350899  -0.005496  3.666683  -0.005  -0.431344  -0.003255  3.910596  -0.003  -0.434394  -0.002249  3.921777  -0.002  -0.043309  -0.005173  -0.247681  -0.428788  -0.004028  3.902743  -0.004
C  C54  1  0.21378888  0.12427649  0.50062919  1  -0.350469  0.005476  3.666529  0.005  -0.430759  0.003252  3.910587  0.003  -0.433782  0.002243  3.921768  0.002  -0.037512  0.00517  -0.247141  -0.428248  0.004021  3.902752  0.004
C  C55  1  0.12476660  0.21378072  0.00061581  1  -0.350891  0.005469  3.666761  0.005  -0.431399  0.003259  3.910527  0.003  -0.434459  0.002249  3.921741  0.002  -0.043229  0.005177  -0.247596  -0.428845  0.004031  3.902683  0.004
C  C56  1  0.64802387  0.52359959  0.82235022  1  0.519708  0.003931  3.991868  0.002  0.489852  -0.001314  4.282252  -0.004  0.519897  1.4e-05  4.291014  -0.003  1.593864  -0.001987  0.313249  0.469617  -0.002279  4.27607  -0.006
C  C57  1  0.52419574  0.64729935  0.32231709  1  0.518728  0.003915  3.992414  0.002  0.488988  -0.001327  4.28283  -0.004  0.519025  4e-06  4.29156  -0.003  1.587406  -0.001978  0.313381  0.468749  -0.002294  4.276657  -0.006
C  C58  1  0.35198268  0.47640287  0.17765159  1  0.519627  -0.003914  3.991532  -0.002  0.489812  0.001317  4.281921  0.004  0.519861  -1.7e-05  4.290681  0.003  1.593998  0.001989  0.313256  0.469576  0.002281  4.275745  0.006
C  C59  1  0.47580250  0.35271471  0.67768027  1  0.518839  -0.00392  3.99243  -0.002  0.489115  0.001324  4.282855  0.004  0.519157  -4e-06  4.291584  0.003  1.587321  0.001976  0.31326  0.468875  0.002291  4.276687  0.006
C  C60  1  0.49715192  0.63598634  0.92085852  1  0.481354  0.001854  3.992583  0.002  0.447397  0.000213  4.286534  0.0  0.469122  0.000191  4.298044  0.0  1.531118  0.000241  0.290181  0.432393  0.000231  4.278411  0.0
C  C61  1  0.63658602  0.49654951  0.42086536  1  0.480397  0.001867  3.991712  0.002  0.446516  0.000218  4.285916  0.0  0.468219  0.000195  4.297411  0.0  1.516102  0.000249  0.290166  0.431513  0.000236  4.277776  0.0
C  C62  1  0.50285490  0.36401903  0.07913884  1  0.481275  -0.001835  3.992834  -0.002  0.447361  -0.000209  4.286774  0.0  0.469087  -0.000195  4.298279  0.0  1.531254  -0.00024  0.290232  0.432357  -0.00023  4.278655  0.0
C  C63  1  0.36342115  0.50348049  0.57912776  1  0.480252  -0.001841  3.992262  -0.002  0.446375  -0.00022  4.286467  0.0  0.468076  -0.00019  4.297965  0.0  1.515846  -0.000248  0.290108  0.431374  -0.000235  4.278329  0.0
C  C64  1  0.07834551  0.12156235  0.66806501  1  0.521712  0.003375  3.964771  0.001  0.496968  -0.002178  4.236359  -0.006  0.526992  -0.000715  4.243542  -0.004  1.563112  -0.003716  0.318375  0.476834  -0.003304  4.231076  -0.007
C  C65  1  0.12197688  0.07705803  0.16804090  1  0.521838  0.003471  3.965172  0.001  0.496861  -0.002137  4.236768  -0.006  0.526993  -0.00067  4.244008  -0.004  1.571124  -0.003668  0.318308  0.476666  -0.003261  4.231467  -0.007
C  C66  1  0.92166910  0.87844011  0.33192543  1  0.521588  -0.003424  3.965233  -0.001  0.496818  0.002182  4.236807  0.006  0.526846  0.000712  4.243995  0.004  1.563516  0.003715  0.318276  0.476683  0.003304  4.231519  0.007
C  C67  1  0.87800111  0.92292704  0.83195383  1  0.521763  -0.003451  3.965199  -0.001  0.496795  0.002138  4.23682  0.006  0.526924  0.000674  4.244062  0.004  1.571166  0.003674  0.318291  0.476601  0.003262  4.231522  0.007
C  C68  1  0.09938925  0.80792615  0.68035623  1  0.477134  0.00385  3.986251  0.004  0.451098  0.001474  4.268254  0.002  0.476947  0.001422  4.277808  0.002  1.501772  0.002143  0.294068  0.433785  0.001487  4.261414  0.002
C  C69  1  0.80836999  0.09890300  0.18032686  1  0.475708  0.003824  3.986016  0.004  0.449324  0.001465  4.268185  0.002  0.475254  0.001411  4.277756  0.002  1.501402  0.002125  0.293192  0.431967  0.001476  4.261351  0.002
C  C70  1  0.90062239  0.19207341  0.31963971  1  0.47703  -0.003837  3.986124  -0.004  0.45096  -0.001473  4.268123  -0.002  0.476811  -0.001421  4.277676  -0.002  1.501553  -0.002142  0.294057  0.433647  -0.001487  4.261285  -0.002
C  C71  1  0.19160934  0.90108208  0.81966975  1  0.476031  -0.003798  3.985287  -0.004  0.44968  -0.001464  4.267458  -0.002  0.475615  -0.001411  4.277023  -0.002  1.500777  -0.002124  0.293422  0.432318  -0.001475  4.260636  -0.002
N  N72  1  0.61382822  0.82121282  0.67579465  1  -0.570684  -0.132041  3.152984  -0.159  -0.564726  -0.083576  3.443836  -0.107  -0.600659  -0.066068  3.454399  -0.089  -1.102396  -0.140923  -0.626625  -0.542726  -0.093597  3.438232  -0.115
N  N73  1  0.82105537  0.61372693  0.17583546  1  -0.571124  -0.131715  3.153217  -0.159  -0.564879  -0.083386  3.443908  -0.106  -0.600799  -0.065944  3.454462  -0.089  -1.101603  -0.140581  -0.626782  -0.542912  -0.093376  3.438303  -0.115
N  N74  1  0.38618581  0.17877660  0.32421169  1  -0.570866  0.132044  3.153169  0.159  -0.564928  0.083581  3.444094  0.107  -0.600879  0.066073  3.454648  0.089  -1.102159  0.14092  -0.626661  -0.542928  0.093598  3.438496  0.115
N  N75  1  0.17892345  0.38626684  0.82416135  1  -0.57109  0.13174  3.153565  0.159  -0.56482  0.083401  3.444246  0.106  -0.600759  0.065958  3.454789  0.089  -1.100919  0.140608  -0.626701  -0.542871  0.093393  3.438655  0.115
N  N76  1  0.84947986  0.59994467  0.58319545  1  -0.614627  -0.131281  3.072586  -0.158  -0.611792  -0.082108  3.350332  -0.105  -0.648371  -0.064701  3.357119  -0.087  -1.119016  -0.139445  -0.625898  -0.58943  -0.092049  3.347196  -0.113
N  N77  1  0.59995417  0.84935117  0.08314513  1  -0.614774  -0.131558  3.07325  -0.159  -0.612598  -0.082279  3.351039  -0.105  -0.649243  -0.064853  3.357798  -0.087  -1.115602  -0.139719  -0.626412  -0.590238  -0.092238  3.347905  -0.113
N  N78  1  0.15053019  0.40005924  0.41680763  1  -0.614794  0.131272  3.072711  0.158  -0.611974  0.082103  3.350345  0.105  -0.648565  0.064696  3.357122  0.087  -1.119195  0.139428  -0.625914  -0.589613  0.092042  3.347216  0.113
N  N79  1  0.40004244  0.15065275  0.91685071  1  -0.614632  0.131559  3.073398  0.159  -0.612592  0.082273  3.351215  0.105  -0.649244  0.064848  3.357977  0.087  -1.115525  0.139712  -0.626349  -0.590245  0.092233  3.348079  0.113
N  N80  1  0.74272415  0.51178954  0.77290869  1  -0.608387  -0.045567  2.956397  -0.054  -0.584634  -0.036777  3.267861  -0.046  -0.61462  -0.032856  3.267592  -0.043  -1.280525  -0.055333  -0.419798  -0.565619  -0.038959  3.268574  -0.047
N  N81  1  0.51213443  0.74227098  0.27288160  1  -0.607978  -0.045542  2.956626  -0.054  -0.584253  -0.036798  3.26806  -0.046  -0.614274  -0.032876  3.267808  -0.043  -1.28087  -0.055403  -0.419665  -0.565263  -0.038987  3.268726  -0.047
N  N82  1  0.25728560  0.48820423  0.22709620  1  -0.608387  0.045563  2.956294  0.054  -0.58463  0.036779  3.267748  0.046  -0.61463  0.032864  3.267466  0.043  -1.280571  0.055336  -0.419823  -0.565618  0.03896  3.268474  0.047
N  N83  1  0.48784177  0.25774453  0.72711599  1  -0.608079  0.045543  2.956729  0.054  -0.58435  0.036798  3.268173  0.046  -0.614381  0.032872  3.267913  0.043  -1.280655  0.055397  -0.419659  -0.565374  0.038983  3.268834  0.047
N  N84  1  0.54910582  0.51264451  0.87598293  1  -0.477665  -0.004759  3.310747  -0.005  -0.432011  -0.001143  3.589513  -0.001  -0.455842  -0.000527  3.591956  0.0  -1.336673  -0.002558  -0.312294  -0.415351  -0.001806  3.587286  -0.002
N  N85  1  0.51358486  0.54803408  0.37593930  1  -0.4768  -0.004771  3.310429  -0.006  -0.431214  -0.001153  3.588915  -0.001  -0.455075  -0.000536  3.591512  0.0  -1.326042  -0.002588  -0.312557  -0.414528  -0.001822  3.586627  -0.002
N  N86  1  0.45089642  0.48735506  0.12401527  1  -0.477581  0.004747  3.310607  0.005  -0.432013  0.001144  3.589433  0.001  -0.455843  0.000524  3.591873  0.0  -1.336692  0.002562  -0.312353  -0.415356  0.001808  3.587214  0.002
N  N87  1  0.48642361  0.45198143  0.62405476  1  -0.476912  0.004767  3.310269  0.006  -0.431365  0.001148  3.588801  0.001  -0.455226  0.000537  3.591393  0.0  -1.326175  0.002583  -0.312516  -0.41468  0.001819  3.586517  0.002
N  N88  1  0.44114071  0.73863667  0.96439091  1  -0.583354  -0.004024  2.628295  -0.004  -0.550843  -0.000843  2.862195  -0.001  -0.563217  -0.000334  2.869171  0.0  -1.268195  -0.002161  -0.370504  -0.541828  -0.001458  2.857374  -0.001
N  N89  1  0.73904881  0.44079304  0.46442192  1  -0.582993  -0.004045  2.627358  -0.004  -0.550346  -0.00086  2.86103  -0.001  -0.562694  -0.000344  2.867994  0.0  -1.257313  -0.002198  -0.370354  -0.541334  -0.001481  2.856207  -0.001
N  N90  1  0.55885619  0.26137739  0.03560890  1  -0.583273  0.00401  2.628428  0.004  -0.550795  0.000837  2.862353  0.001  -0.563166  0.000337  2.869322  0.0  -1.268352  0.002164  -0.370509  -0.541782  0.001459  2.857535  0.001
N  N91  1  0.26095727  0.55923261  0.53557909  1  -0.582746  0.004014  2.627906  0.004  -0.550081  0.000861  2.861557  0.001  -0.562426  0.000337  2.868514  0.0  -1.257032  0.002193  -0.370257  -0.54107  0.001478  2.856735  0.001
N  N92  1  0.01463984  0.28804346  0.67686494  1  -0.596467  -0.045177  2.955141  -0.053  -0.568631  -0.037625  3.257093  -0.046  -0.596122  -0.033344  3.254636  -0.042  -1.255228  -0.056686  -0.412069  -0.551597  -0.040218  3.259401  -0.048
N  N93  1  0.28826736  0.01364024  0.17672803  1  -0.597005  -0.045309  2.955123  -0.053  -0.569141  -0.037684  3.257383  -0.046  -0.596694  -0.033413  3.254865  -0.043  -1.255465  -0.056749  -0.412772  -0.552107  -0.040273  3.259641  -0.048
N  N94  1  0.98538067  0.71195031  0.32312945  1  -0.596458  0.045228  2.955274  0.053  -0.568622  0.037625  3.257246  0.046  -0.596128  0.033351  3.254782  0.042  -1.255306  0.056688  -0.412078  -0.551585  0.040219  3.259555  0.048
N  N95  1  0.71172512  0.98633469  0.82326654  1  -0.596862  0.045282  2.955575  0.053  -0.568978  0.03768  3.257808  0.046  -0.596542  0.033406  3.255291  0.043  -1.25565  0.056742  -0.412661  -0.551975  0.04027  3.260096  0.048
N  N96  1  0.16260781  0.94166662  0.65520330  1  -0.466214  -0.004482  3.273525  -0.006  -0.408372  -0.001052  3.523171  -0.002  -0.430197  -0.000189  3.524636  -0.001  -1.314973  -0.003176  -0.307752  -0.392967  -0.002071  3.521274  -0.003
N  N97  1  0.94243217  0.16139482  0.15517355  1  -0.465356  -0.004416  3.275268  -0.006  -0.407088  -0.001023  3.524736  -0.002  -0.429103  -0.000172  3.526296  -0.001  -1.322097  -0.003114  -0.306964  -0.391568  -0.002033  3.522773  -0.003
N  N98  1  0.83739522  0.05832715  0.34478544  1  -0.466074  0.004486  3.273569  0.006  -0.408166  0.00105  3.523163  0.002  -0.429988  0.00019  3.524632  0.001  -1.31551  0.003173  -0.307631  -0.392768  0.002069  3.52128  0.003
N  N99  1  0.05754985  0.83859026  0.84482490  1  -0.465396  0.004422  3.274821  0.006  -0.407174  0.001024  3.524328  0.002  -0.429188  0.000173  3.525882  0.001  -1.322135  0.003119  -0.307091  -0.391649  0.002035  3.52236  0.003
N  N100  1  0.05346949  0.67694329  0.70052831  1  -0.592488  -0.003223  2.774441  -0.005  -0.570997  -9.7e-05  3.051371  -0.001  -0.591114  0.000277  3.054432  -0.001  -1.239551  -0.000689  -0.384043  -0.558012  -0.000674  3.049736  -0.002
N  N101  1  0.67686290  0.05399873  0.20040811  1  -0.591454  -0.003169  2.770955  -0.005  -0.569595  -7e-05  3.047145  -0.001  -0.589714  0.000303  3.050234  -0.001  -1.239244  -0.000649  -0.383148  -0.556649  -0.000641  3.045456  -0.002
N  N102  1  0.94653734  0.32306207  0.29947579  1  -0.592373  0.003202  2.774454  0.005  -0.570838  9.7e-05  3.051327  0.001  -0.590962  -0.00028  3.054384  0.001  -1.23905  0.000684  -0.384024  -0.557854  0.000671  3.0497  0.002
N  N103  1  0.32312181  0.94598635  0.79958976  1  -0.591731  0.003145  2.770375  0.005  -0.569877  7e-05  3.046588  0.001  -0.590006  -0.000302  3.049662  0.001  -1.238419  0.000653  -0.383286  -0.55694  0.000644  3.044905  0.002
