# generated using pymatgen
data_AgH8C4S2NO2
_symmetry_space_group_name_H-M   'P 1'
_cell_length_a   7.42678128
_cell_length_b   9.60504842
_cell_length_c   10.95259209
_cell_angle_alpha   103.25026187
_cell_angle_beta   89.99998087
_cell_angle_gamma   89.99994345
_symmetry_Int_Tables_number   1
_chemical_formula_structural   AgH8C4S2NO2
_chemical_formula_sum   'Ag4 H32 C16 S8 N4 O8'
_cell_volume   760.49913826
_cell_formula_units_Z   4
loop_
 _symmetry_equiv_pos_site_id
 _symmetry_equiv_pos_as_xyz
  1  'x, y, z'
loop_
 _atom_site_type_symbol
 _atom_site_label
 _atom_site_symmetry_multiplicity
 _atom_site_fract_x
 _atom_site_fract_y
 _atom_site_fract_z
 _atom_site_occupancy
 _atom_site_pbe_bader_spin_density
 _atom_site_pbe_cm5_charge
 _atom_site_pbe_ddec_charge
 _atom_site_pbe_ddec_spin_density
 _atom_site_pbe_ddec_sum_bond_order
 _atom_site_pbe_magmom
Ag  Ag0  1  0.12354167  0.35098937  0.71741321  1  0  0.342658  0.188118  0  2.132063  0
Ag  Ag1  1  0.37646386  0.85098926  0.71741594  1  0  0.342684  0.188163  0  2.132049  0
Ag  Ag2  1  0.87646267  0.64901396  0.28258397  1  0  0.342655  0.188102  0  2.132115  0
Ag  Ag3  1  0.62354183  0.14901732  0.28258552  1  0  0.342676  0.188154  0  2.132074  0
H  H4  1  0.19752944  0.29666754  0.36580192  1  0  0.09536  0.11132  0  1.024131  0
H  H5  1  0.30246558  0.79666748  0.36580285  1  0  0.095378  0.11135  0  1.024083  0
H  H6  1  0.80246547  0.70332724  0.63419452  1  0  0.09537  0.111332  0  1.024179  0
H  H7  1  0.69753203  0.20332732  0.63419543  1  0  0.095379  0.111342  0  1.02417  0
H  H8  1  0.01025850  0.38431631  0.31668102  1  0  0.095613  0.118391  0  1.016424  0
H  H9  1  0.48974317  0.88431820  0.31668045  1  0  0.095604  0.1184  0  1.016377  0
H  H10  1  0.98974045  0.61567635  0.68331685  1  0  0.095633  0.118442  0  1.016358  0
H  H11  1  0.51025982  0.11567982  0.68331936  1  0  0.095614  0.118424  0  1.016355  0
H  H12  1  0.72525724  0.47786515  0.47188451  1  0  0.092306  0.109155  0  1.034906  0
H  H13  1  0.77474137  0.97787043  0.47188372  1  0  0.092338  0.109202  0  1.034925  0
H  H14  1  0.27474306  0.52212539  0.52811386  1  0  0.09232  0.109205  0  1.034855  0
H  H15  1  0.22526163  0.02212971  0.52811467  1  0  0.092321  0.109235  0  1.034819  0
H  H16  1  0.71967068  0.45249507  0.62829470  1  0  0.099278  0.115958  0  1.013318  0
H  H17  1  0.78033326  0.95249823  0.62829534  1  0  0.099268  0.115955  0  1.013317  0
H  H18  1  0.28032962  0.54749544  0.37170184  1  0  0.099264  0.115995  0  1.01334  0
H  H19  1  0.21967108  0.04750086  0.37170468  1  0  0.099258  0.11597  0  1.013319  0
H  H20  1  0.74928094  0.58161422  0.86475872  1  0  0.094602  0.100429  0  1.058144  0
H  H21  1  0.75072197  0.08161533  0.86476073  1  0  0.094595  0.100412  0  1.058181  0
H  H22  1  0.25072071  0.41838593  0.13524059  1  0  0.094599  0.100419  0  1.058162  0
H  H23  1  0.24927968  0.91839021  0.13524327  1  0  0.094607  0.100455  0  1.058113  0
H  H24  1  0.73458167  0.56603648  0.02252391  1  0  0.092768  0.111222  0  1.009937  0
H  H25  1  0.76541498  0.06603654  0.02252845  1  0  0.092753  0.111213  0  1.009948  0
H  H26  1  0.26541593  0.43396472  0.97747378  1  0  0.092768  0.111207  0  1.00994  0
H  H27  1  0.23458262  0.93396688  0.97747697  1  0  0.092766  0.111216  0  1.009949  0
H  H28  1  0.92025979  0.35278399  0.10281125  1  0  0.093566  0.11324  0  1.022719  0
H  H29  1  0.57973647  0.85278310  0.10281480  1  0  0.093592  0.113267  0  1.022808  0
H  H30  1  0.07973512  0.64721828  0.89718664  1  0  0.093604  0.113284  0  1.022752  0
H  H31  1  0.42026248  0.14722031  0.89718879  1  0  0.093531  0.113193  0  1.022706  0
H  H32  1  0.06203454  0.23213526  0.99796889  1  0  0.099244  0.117432  0  1.005242  0
H  H33  1  0.43796290  0.73213832  0.99797313  1  0  0.099237  0.117399  0  1.005306  0
H  H34  1  0.93796307  0.76786379  0.00202838  1  0  0.099238  0.117386  0  1.005279  0
H  H35  1  0.56203605  0.26786938  0.00203311  1  0  0.099242  0.117407  0  1.00516  0
C  C36  1  0.09821852  0.38203429  0.39676525  1  0  -0.154872  -0.173273  0  3.901205  0
C  C37  1  0.40178041  0.88203305  0.39676409  1  0  -0.154862  -0.173271  0  3.901142  0
C  C38  1  0.90177504  0.61796054  0.60323578  1  0  -0.154881  -0.173316  0  3.901202  0
C  C39  1  0.59822258  0.11796284  0.60323622  1  0  -0.154901  -0.173322  0  3.901252  0
C  C40  1  0.80758090  0.47609831  0.55481080  1  0  -0.160174  -0.190608  0  3.914984  0
C  C41  1  0.69241901  0.97610046  0.55480943  1  0  -0.160201  -0.190686  0  3.914993  0
C  C42  1  0.19241401  0.52389758  0.44518951  1  0  -0.16018  -0.190769  0  3.915035  0
C  C43  1  0.30758802  0.02389754  0.44518855  1  0  -0.160175  -0.190785  0  3.914931  0
C  C44  1  0.82673979  0.55628991  0.94233866  1  0  -0.159875  -0.185044  0  3.926012  0
C  C45  1  0.67325772  0.05628900  0.94234394  1  0  -0.159832  -0.185046  0  3.925934  0
C  C46  1  0.17325782  0.44371233  0.05765740  1  0  -0.159851  -0.185  0  3.925903  0
C  C47  1  0.32673989  0.94371441  0.05766056  1  0  -0.159834  -0.184999  0  3.925986  0
C  C48  1  0.01443403  0.34322368  0.02380217  1  0  -0.158166  -0.184629  0  3.914453  0
C  C49  1  0.48556246  0.84322459  0.02380872  1  0  -0.158223  -0.184689  0  3.914611  0
C  C50  1  0.98556088  0.65677428  0.97619215  1  0  -0.158209  -0.184631  0  3.914474  0
C  C51  1  0.51443515  0.15677991  0.97619782  1  0  -0.158137  -0.184526  0  3.914208  0
S  S52  1  0.96065943  0.32463992  0.51339830  1  0  -0.016093  0.071844  0  3.053936  0
S  S53  1  0.53934337  0.82464116  0.51339953  1  0  -0.016098  0.071818  0  3.053978  0
S  S54  1  0.03934356  0.67535380  0.48659794  1  0  -0.016088  0.071876  0  3.053908  0
S  S55  1  0.46065962  0.17535473  0.48660078  1  0  -0.016076  0.071874  0  3.053961  0
S  S56  1  0.88722776  0.36918847  0.88920301  1  0  -0.006863  0.077943  0  3.01564  0
S  S57  1  0.61277209  0.86919182  0.88920737  1  0  -0.006866  0.077967  0  3.015764  0
S  S58  1  0.11277254  0.63080953  0.11079497  1  0  -0.006865  0.077956  0  3.015676  0
S  S59  1  0.38722821  0.13081373  0.11079754  1  0  -0.006883  0.077904  0  3.015678  0
N  N60  1  0.45328197  0.53437403  0.77113055  1  0  -0.068686  0.180101  0  3.52788  0
N  N61  1  0.04671583  0.03437214  0.77113385  1  0  -0.068781  0.179929  0  3.528021  0
N  N62  1  0.54670621  0.46562611  0.22886785  1  0  -0.068765  0.17989  0  3.527447  0
N  N63  1  0.95329928  0.96562379  0.22886921  1  0  -0.06882  0.179738  0  3.527218  0
O  O64  1  0.43258398  0.40472981  0.77566349  1  0  -0.186825  -0.326388  0  2.273629  0
O  O65  1  0.06741876  0.90472676  0.77566480  1  0  -0.186749  -0.326268  0  2.273751  0
O  O66  1  0.56741766  0.59528524  0.22433229  1  0  -0.186795  -0.326312  0  2.273342  0
O  O67  1  0.93258558  0.09528730  0.22433810  1  0  -0.18675  -0.326223  0  2.273245  0
O  O68  1  0.31157721  0.59580631  0.74395605  1  0  -0.193856  -0.355205  0  2.324847  0
O  O69  1  0.18842322  0.09580747  0.74395717  1  0  -0.193849  -0.355155  0  2.324782  0
O  O70  1  0.68842443  0.40419705  0.25604479  1  0  -0.193805  -0.355085  0  2.324683  0
O  O71  1  0.81157169  0.90419485  0.25604530  1  0  -0.193806  -0.355009  0  2.324497  0
