# generated using pymatgen
data_Zn4H44C81I6N20O
_symmetry_space_group_name_H-M   'P 1'
_cell_length_a   19.00038600
_cell_length_b   19.55343147
_cell_length_c   20.18702938
_cell_angle_alpha   109.11737945
_cell_angle_beta   104.68191468
_cell_angle_gamma   112.21009818
_symmetry_Int_Tables_number   1
_chemical_formula_structural   Zn4H44C81I6N20O
_chemical_formula_sum   'Zn4 H44 C81 I6 N20 O1'
_cell_volume   5919.07224377
_cell_formula_units_Z   1
loop_
 _symmetry_equiv_pos_site_id
 _symmetry_equiv_pos_as_xyz
  1  'x, y, z'
loop_
 _atom_site_type_symbol
 _atom_site_label
 _atom_site_symmetry_multiplicity
 _atom_site_fract_x
 _atom_site_fract_y
 _atom_site_fract_z
 _atom_site_occupancy
 _atom_site_pbe_bader_charge
 _atom_site_pbe_bader_spin_density
 _atom_site_pbe_cm5_charge
 _atom_site_pbe_ddec_charge
 _atom_site_pbe_ddec_spin_density
 _atom_site_pbe_ddec_sum_bond_order
 _atom_site_pbe_magmom
Zn  Zn0  1  0.10822608  0.10273482  0.49038221  1  1.202079  0  0.7468  0.644786  0  2.382965  0
Zn  Zn1  1  0.87621378  0.88603781  0.49203399  1  1.188625  0  0.747131  0.6042  0  2.486595  0
Zn  Zn2  1  0.00119180  0.89674211  0.40708335  1  1.190078  0  0.741545  0.609098  0  2.437778  0
Zn  Zn3  1  0.99141394  0.09035181  0.58826042  1  1.188365  0  0.742628  0.608593  0  2.450726  0
H  H4  1  0.18290591  0.12418874  0.35728459  1  0.058571  0  0.11929  0.109788  0  0.991731  0
H  H5  1  0.80967953  0.68995371  0.46958600  1  0.074413  0  0.117931  0.107598  0  0.993974  0
H  H6  1  0.13145196  0.86501163  0.51462844  1  0.064971  0  0.113102  0.096679  0  1.021486  0
H  H7  1  0.14193138  0.11315447  0.72838961  1  0.111145  0  0.118887  0.105032  0  1.000905  0
H  H8  1  0.98515907  0.84186409  0.60734714  1  0.091503  0  0.116979  0.103903  0  1.010391  0
H  H9  1  0.27795672  0.13553215  0.61584570  1  0.088401  0  0.115023  0.101836  0  1.007912  0
H  H10  1  0.10707109  0.28104051  0.73495623  1  0.07755  0  0.119008  0.105796  0  1.000512  0
H  H11  1  0.99815679  0.71892713  0.38110091  1  0.081036  0  0.1194  0.10881  0  0.992594  0
H  H12  1  0.03897738  0.65906968  0.47799521  1  0.057929  0  0.096299  0.097904  0  1.014346  0
H  H13  1  0.76822694  0.52260994  0.38422425  1  0.047898  0  0.099445  0.103009  0  1.006267  0
H  H14  1  0.69386183  0.37535123  0.36186464  1  0.086012  0  0.103303  0.106222  0  0.987103  0
H  H15  1  0.71211897  0.85863501  0.53172982  1  0.102115  0  0.116845  0.103251  0  1.00308  0
H  H16  1  0.69768584  0.25059992  0.35918917  1  0.09976  0  0.088309  0.095353  0  1.049453  0
H  H17  1  0.05245318  0.32288647  0.48473371  1  0.066349  0  0.103654  0.112096  0  1.00638  0
H  H18  1  0.12604900  0.46928819  0.51243293  1  0.071381  0  0.103123  0.105756  0  0.990626  0
H  H19  1  0.12146465  0.59376945  0.51076926  1  0.043445  0  0.100772  0.102764  0  0.996364  0
H  H20  1  0.25635928  0.86271115  0.55197147  1  0.034515  0  0.097214  0.099379  0  1.012532  0
H  H21  1  0.39632780  0.13300226  0.68100760  1  0.051871  0  0.099037  0.103092  0  1.00807  0
H  H22  1  0.55174198  0.20910314  0.74123255  1  0.075451  0  0.101344  0.116496  0  0.994994  0
H  H23  1  0.75136868  0.13029037  0.69300228  1  0.067676  0  0.08385  0.089591  0  1.070158  0
H  H24  1  0.89492906  0.89813080  0.25534031  1  0.113772  0  0.110891  0.104774  0  1.023896  0
H  H25  1  0.61075363  0.85995507  0.56996351  1  0.012322  0  0.097867  0.098491  0  1.015072  0
H  H26  1  0.46322885  0.78313547  0.54664227  1  0.057428  0  0.100306  0.101008  0  0.996119  0
H  H27  1  0.33182953  0.78332876  0.54050182  1  0.0442  0  0.099969  0.101165  0  0.997985  0
H  H28  1  0.47491643  0.57782815  0.84916518  1  0.085856  0  0.107011  0.111472  0  1.005922  0
H  H29  1  0.37425114  0.43812024  0.73352758  1  0.054587  0  0.099855  0.100144  0  1.000015  0
H  H30  1  0.62792853  0.76129301  0.23236330  1  0.059269  0  0.102551  0.10457  0  1.000547  0
H  H31  1  0.28087809  0.56171530  0.92632262  1  0.083919  0  0.107877  0.111264  0  0.991437  0
H  H32  1  0.50661952  0.67913774  0.10166298  1  0.099889  0  0.107915  0.112384  0  1.007878  0
H  H33  1  0.85528637  0.12430317  0.49847251  1  0.106232  0  0.111077  0.104002  0  1.012167  0
H  H34  1  0.17813104  0.42376967  0.80894342  1  0.051497  0  0.101051  0.101821  0  1.000934  0
H  H35  1  0.23140977  0.10210407  0.82311051  1  0.067903  0  0.101796  0.103599  0  0.999679  0
H  H36  1  0.27866386  0.11335232  0.95492976  1  0.079847  0  0.107498  0.110504  0  0.990988  0
H  H37  1  0.14403015  0.05501488  0.08395490  1  0.091338  0  0.108065  0.115196  0  0.998904  0
H  H38  1  0.11753862  0.06896127  0.20163354  1  0.041872  0  0.101348  0.103664  0  0.999773  0
H  H39  1  0.03402935  0.84721903  0.73196292  1  0.056371  0  0.101446  0.103113  0  0.997267  0
H  H40  1  0.08565227  0.85800367  0.86309387  1  0.116971  0  0.107746  0.112352  0  1.003032  0
H  H41  1  0.72271797  0.87965860  0.36328099  1  0.074521  0  0.119027  0.107199  0  0.993759  0
H  H42  1  0.86420645  0.12885596  0.66738550  1  0.112235  0  0.119337  0.109847  0  0.994897  0
H  H43  1  0.04802418  0.85382494  0.25594110  1  0.085386  0  0.112776  0.108182  0  1.005337  0
H  H44  1  0.26641725  0.30902511  0.61436823  1  0.084051  0  0.118779  0.106329  0  0.996591  0
H  H45  1  0.96756303  0.19931964  0.31719127  1  0.076902  0  0.09893  0.104764  0  1.005672  0
H  H46  1  0.99064793  0.11711445  0.28036220  1  0.069106  0  0.084634  0.093949  0  1.030919  0
H  H47  1  0.06934552  0.22488524  0.31873367  1  0.062419  0  0.107511  0.114345  0  0.967828  0
C  C48  1  0.14549141  0.05895296  0.34261287  1  0.439627  0  0.007682  -0.050568  0  3.988511  0
C  C49  1  0.75899361  0.99448152  0.61031929  1  -0.015295  0  -0.037801  -0.037669  0  4.083803  0
C  C50  1  0.78017681  0.88059041  0.27796412  1  -0.009056  0  -0.040526  -0.042297  0  4.061837  0
C  C51  1  0.93159165  0.17490630  0.43930920  1  0.025217  0  -0.051522  -0.152724  0  4.080217  0
C  C52  1  0.21857646  0.28851543  0.63480530  1  0.434271  0  0.007521  -0.053327  0  3.992573  0
C  C53  1  0.85594505  0.70888086  0.44714710  1  0.416958  0  0.003289  -0.064387  0  4.010698  0
C  C54  1  0.15623219  0.93143756  0.53315529  1  0.435918  0  0.008557  -0.045812  0  3.961494  0
C  C55  1  0.09649635  0.04729699  0.68862574  1  0.42338  0  0.015543  -0.034182  0  3.948048  0
C  C56  1  0.01583669  0.90897634  0.62741522  1  0.376951  0  0.011405  -0.040965  0  3.950837  0
C  C57  1  0.23064753  0.06937357  0.58519257  1  0.418904  0  0.0071  -0.051585  0  3.973815  0
C  C58  1  0.13676783  0.27452721  0.69564364  1  0.446099  0  0.00705  -0.056472  0  4.001555  0
C  C59  1  0.75995951  0.92457859  0.56204516  1  0.374974  0  0.005025  -0.05977  0  4.00924  0
C  C60  1  0.95343943  0.72493530  0.40374341  1  0.399028  0  0.004978  -0.060528  0  3.997543  0
C  C61  1  0.21182579  0.33388063  0.70103375  1  -0.016933  0  -0.039958  -0.050906  0  4.101767  0
C  C62  1  0.90304682  0.67221401  0.42641549  1  0.006663  0  -0.036969  -0.036186  0  4.093222  0
C  C63  1  0.23845082  0.99983358  0.58276317  1  -0.033266  0  -0.036372  -0.039535  0  4.063147  0
C  C64  1  0.08552801  0.97576764  0.69731009  1  0.049175  0  -0.033261  -0.043745  0  4.06299  0
C  C65  1  0.98045544  0.60127190  0.45725786  1  -0.039525  0  -0.094728  -0.193664  0  3.955214  0
C  C66  1  0.90330413  0.59860708  0.42977925  1  0.016309  0  -0.013631  0.090158  0  4.089317  0
C  C67  1  0.82855406  0.52539480  0.40616101  1  -0.03545  0  -0.09247  -0.191665  0  3.939886  0
C  C68  1  0.82949850  0.45427279  0.40735431  1  -0.034602  0  -0.010752  0.081027  0  4.057859  0
C  C69  1  0.90805300  0.45680099  0.43394735  1  -0.018778  0  0.001263  -0.000475  0  3.906902  0
C  C70  1  0.86285371  0.89651466  0.29273940  1  0.42936  0  0.00783  -0.035676  0  3.948843  0
C  C71  1  0.98459459  0.53228648  0.46030670  1  -0.020078  0  -0.010791  0.082099  0  4.0591  0
C  C72  1  0.75420858  0.37764339  0.38132652  1  -0.092382  0  -0.089799  -0.124764  0  3.999691  0
C  C73  1  0.75629544  0.30803011  0.37984025  1  -0.040888  0  -0.098604  -0.126916  0  4.010496  0
C  C74  1  0.83399558  0.30799601  0.40514791  1  0.058894  0  -0.015029  0.046803  0  4.01518  0
C  C75  1  0.91049560  0.38487899  0.43372460  1  -0.076438  0  0.001637  0.007185  0  3.912219  0
C  C76  1  0.99000130  0.38961162  0.46158845  1  0.019446  0  -0.012524  0.07649  0  4.075665  0
C  C77  1  0.06595245  0.46677558  0.49010608  1  -0.068311  0  -0.092375  -0.13233  0  4.024395  0
C  C78  1  0.06340624  0.53526783  0.48924455  1  -0.005055  0  -0.094018  -0.138256  0  4.030824  0
C  C79  1  0.83979299  0.23730092  0.40353099  1  -0.262188  0  -0.046995  -0.043294  0  3.815636  0
C  C80  1  0.91819439  0.24199624  0.43250176  1  -0.002563  0  -0.017641  0.07343  0  4.067426  0
C  C81  1  0.90259833  0.12851440  0.47658697  1  0.416141  0  0.004718  -0.033854  0  3.991561  0
C  C82  1  0.99173081  0.31879722  0.46125330  1  0.022212  0  -0.09033  -0.180907  0  3.945128  0
C  C83  1  0.31610635  0.92194387  0.58669748  1  -8e-05  0  -0.091511  -0.186193  0  3.931572  0
C  C84  1  0.31629869  0.99817688  0.61202971  1  0.010991  0  -0.009471  0.093932  0  4.076795  0
C  C85  1  0.39432963  0.07308232  0.65831720  1  -0.054876  0  -0.090994  -0.184479  0  3.928965  0
C  C86  1  0.47071152  0.07364577  0.67196786  1  0.032311  0  -0.008695  0.091506  0  4.061122  0
C  C87  1  0.46958333  0.99635234  0.63955704  1  -0.012798  0  -0.002219  -0.006933  0  3.932277  0
C  C88  1  0.39092106  0.91940381  0.59946244  1  -0.013932  0  -0.009743  0.082731  0  4.055945  0
C  C89  1  0.55038668  0.15022673  0.71336435  1  -0.029578  0  -0.098457  -0.17279  0  3.992095  0
C  C90  1  0.62283260  0.14999851  0.71573050  1  -0.230858  0  -0.047038  0.024186  0  3.901417  0
C  C91  1  0.62334595  0.07376487  0.67755019  1  0.018534  0  -0.013863  0.049796  0  4.028577  0
C  C92  1  0.77460864  0.88569939  0.34762079  1  0.450729  0  0.012403  -0.04082  0  3.962427  0
C  C93  1  0.54506206  0.99657941  0.64258233  1  0.025031  0  0.00252  0.008892  0  3.912311  0
C  C94  1  0.54247560  0.91892479  0.60588769  1  0.006168  0  -0.00964  0.0822  0  4.052717  0
C  C95  1  0.46400734  0.84217300  0.57201612  1  -0.01974  0  -0.094189  -0.136434  0  4.023704  0
C  C96  1  0.39140376  0.84228572  0.56870361  1  -0.060351  0  -0.094181  -0.137381  0  4.028248  0
C  C97  1  0.69332396  0.07111399  0.66913218  1  -0.09499  0  -0.099323  -0.180336  0  3.942755  0
C  C98  1  0.68925447  0.99521650  0.62806176  1  0.102204  0  -0.01128  0.094795  0  4.082369  0
C  C99  1  0.61461468  0.91983096  0.59997014  1  -0.085894  0  -0.09272  -0.186666  0  3.943688  0
C  C100  1  0.26901457  0.41947939  0.76344978  1  0.030327  0  -0.003529  0.095993  0  4.035659  0
C  C101  1  0.24316413  0.45683289  0.81757276  1  0.039634  0  -0.096156  -0.134947  0  3.994079  0
C  C102  1  0.29973735  0.53404691  0.88273150  1  -0.066246  0  -0.081481  -0.133134  0  3.983581  0
C  C103  1  0.99445142  0.15753261  0.42725841  1  1.007293  0  0.1809  0.290378  0  4.065563  0
C  C104  1  0.38396348  0.57768145  0.89511979  1  0.313298  0  0.08146  0.159951  0  4.063337  0
C  C105  1  0.40948623  0.54354942  0.83904114  1  -0.054926  0  -0.083735  -0.129871  0  3.955303  0
C  C106  1  0.35281605  0.46568770  0.77469263  1  -0.013962  0  -0.092923  -0.130913  0  3.989512  0
C  C107  1  0.64611192  0.82030889  0.06951370  1  -0.195136  0  -0.053132  -0.032516  0  3.866509  0
C  C108  1  0.71318265  0.86893032  0.14408813  1  -0.16243  0  -0.055888  -0.018614  0  3.85631  0
C  C109  1  0.57212498  0.74993195  0.05363278  1  0.365841  0  0.076759  0.143695  0  4.058339  0
C  C110  1  0.70927230  0.84636318  0.20364359  1  0.003749  0  -0.007905  0.070704  0  3.99734  0
C  C111  1  0.63195857  0.77956219  0.18732450  1  0.020132  0  -0.09265  -0.118992  0  4.000313  0
C  C112  1  0.56463813  0.73305089  0.11479291  1  -0.041286  0  -0.087489  -0.135744  0  3.988999  0
C  C113  1  0.15142736  0.97964804  0.21558595  1  0.084145  0  -0.011222  0.066742  0  4.008005  0
C  C114  1  0.83741068  0.06219075  0.63090739  1  0.401019  0  0.008651  -0.049718  0  3.973774  0
C  C115  1  0.18098970  0.92531398  0.18537750  1  -0.218385  0  -0.05538  -0.014361  0  3.850584  0
C  C116  1  0.19152250  0.91434707  0.11709680  1  -0.21075  0  -0.054409  -0.034132  0  3.870644  0
C  C117  1  0.17707278  0.96078365  0.08006444  1  0.410252  0  0.077515  0.144098  0  4.066894  0
C  C118  1  0.15465220  0.01970628  0.11350778  1  -0.025849  0  -0.089314  -0.141311  0  3.989483  0
C  C119  1  0.14087553  0.02759454  0.17905090  1  -0.040822  0  -0.09345  -0.121266  0  4.01003  0
C  C120  1  0.22616173  0.05504521  0.90491717  1  -0.037191  0  -0.080728  -0.131256  0  3.983507  0
C  C121  1  0.19895459  0.04845180  0.83143268  1  -0.103697  0  -0.094433  -0.135136  0  3.994702  0
C  C122  1  0.18395057  0.98711388  0.91711613  1  0.398037  0  0.079958  0.157832  0  4.064112  0
C  C123  1  0.12679041  0.97508775  0.76837280  1  0.021485  0  0.000278  0.101147  0  4.022791  0
C  C124  1  0.08937063  0.90501114  0.78007407  1  -0.003266  0  -0.091556  -0.127668  0  3.979212  0
C  C125  1  0.07765001  0.92103300  0.29146773  1  0.440709  0  0.001241  -0.055482  0  4.020184  0
C  C126  1  0.11745653  0.91042849  0.85300230  1  -0.088775  0  -0.08325  -0.131173  0  3.955482  0
C  C127  1  0.12808681  0.98625466  0.28020360  1  0.010295  0  -0.045978  -0.045368  0  4.108272  0
C  C128  1  0.01669380  0.18209761  0.32431997  1  0.344907  0  -0.137789  -0.162482  0  3.884741  0
I  I129  1  0.72835399  0.12005579  0.35287156  1  0.089541  0  0.066829  -0.041338  0  1.430913  0
I  I130  1  0.73622122  0.26683372  0.77560444  1  0.067947  0  0.031139  -0.078497  0  1.308076  0
I  I131  1  0.81990108  0.97881537  0.16977777  1  0.103052  0  0.066557  -0.045845  0  1.619122  0
I  I132  1  0.64639914  0.84741944  0.97710159  1  0.138419  0  0.051146  -0.03842  0  1.460846  0
I  I133  1  0.23479821  0.83580548  0.06711950  1  0.142782  0  0.053492  -0.030468  0  1.460965  0
I  I134  1  0.21526644  0.86552245  0.24712088  1  0.10136  0  0.045296  -0.051022  0  1.482866  0
N  N135  1  0.10951650  0.03840641  0.38789037  1  -0.788055  0  -0.269667  -0.178606  0  3.534911  0
N  N136  1  0.87705128  0.77807025  0.43795200  1  -0.791335  0  -0.275103  -0.180033  0  3.549405  0
N  N137  1  0.10501647  0.95864954  0.50756119  1  -0.78541  0  -0.279665  -0.173529  0  3.625519  0
N  N138  1  0.03717198  0.02417849  0.62010156  1  -0.798372  0  -0.28341  -0.180541  0  3.655269  0
N  N139  1  0.98788860  0.93931102  0.58236965  1  -0.797686  0  -0.280949  -0.184986  0  3.640914  0
N  N140  1  0.15077576  0.04343728  0.53962579  1  -0.783732  0  -0.280924  -0.188461  0  3.638584  0
N  N141  1  0.10221873  0.20080023  0.63206339  1  -0.803132  0  -0.267211  -0.168884  0  3.533849  0
N  N142  1  0.93742002  0.78775763  0.41040139  1  -0.782652  0  -0.271166  -0.17441  0  3.544054  0
N  N143  1  0.43868212  0.64893658  0.96779636  1  -0.504063  0  -0.156196  -0.145527  0  3.303619  0
N  N144  1  0.51288990  0.69243807  0.97638812  1  -0.488298  0  -0.157027  -0.123134  0  3.339091  0
N  N145  1  0.17607536  0.94166973  0.00634251  1  -0.467666  0  -0.157352  -0.125934  0  3.337467  0
N  N146  1  0.83258824  0.94873092  0.55483835  1  -0.774942  0  -0.274554  -0.16963  0  3.57847  0
N  N147  1  0.20410934  0.00469945  0.99479204  1  -0.507337  0  -0.153529  -0.142176  0  3.306  0
N  N148  1  0.90159396  0.90832479  0.36465628  1  -0.788285  0  -0.281647  -0.176612  0  3.622345  0
N  N149  1  0.94517593  0.08808416  0.48637122  1  -0.777449  0  -0.291311  -0.183013  0  3.608027  0
N  N150  1  0.84754711  0.90208931  0.39840726  1  -0.796319  0  -0.283304  -0.180108  0  3.655895  0
N  N151  1  0.00072288  0.10460638  0.45413052  1  -0.799779  0  -0.289204  -0.282479  0  3.568986  0
N  N152  1  0.88110668  0.03452312  0.59767160  1  -0.798275  0  -0.267341  -0.171991  0  3.526859  0
N  N153  1  0.06692994  0.95241937  0.35554037  1  -0.807564  0  -0.271109  -0.166273  0  3.54454  0
N  N154  1  0.15308708  0.20947204  0.59388588  1  -0.820974  0  -0.262442  -0.172694  0  3.508385  0
O  O155  1  0.05111332  0.19050522  0.40080829  1  -1.100804  0  -0.200995  -0.207756  0  2.564987  0
