# generated using pymatgen
data_CdH12(C5O4)2
_symmetry_space_group_name_H-M   'P 1'
_cell_length_a   5.38756499
_cell_length_b   6.51504281
_cell_length_c   18.18489412
_cell_angle_alpha   93.71483365
_cell_angle_beta   89.97873294
_cell_angle_gamma   114.44425483
_symmetry_Int_Tables_number   1
_chemical_formula_structural   CdH12(C5O4)2
_chemical_formula_sum   'Cd2 H24 C20 O16'
_cell_volume   579.61326696
_cell_formula_units_Z   2
loop_
 _symmetry_equiv_pos_site_id
 _symmetry_equiv_pos_as_xyz
  1  'x, y, z'
loop_
 _atom_site_type_symbol
 _atom_site_label
 _atom_site_symmetry_multiplicity
 _atom_site_fract_x
 _atom_site_fract_y
 _atom_site_fract_z
 _atom_site_occupancy
 _atom_site_hle17_bader_spin_density
 _atom_site_hle17_ddec_charge
 _atom_site_hle17_ddec_spin_density
 _atom_site_hle17_ddec_sum_bond_order
 _atom_site_hle17_magmom
 _atom_site_hse06_10hf_bader_spin_density
 _atom_site_hse06_10hf_ddec_charge
 _atom_site_hse06_10hf_ddec_spin_density
 _atom_site_hse06_10hf_ddec_sum_bond_order
 _atom_site_hse06_10hf_magmom
 _atom_site_hse06_bader_spin_density
 _atom_site_hse06_ddec_charge
 _atom_site_hse06_ddec_spin_density
 _atom_site_hse06_ddec_sum_bond_order
 _atom_site_hse06_magmom
 _atom_site_pbe_bader_spin_density
 _atom_site_pbe_cm5_charge
 _atom_site_pbe_ddec_charge
 _atom_site_pbe_ddec_spin_density
 _atom_site_pbe_ddec_sum_bond_order
 _atom_site_pbe_magmom
Cd  Cd0  1  0.80890786  0.99984282  0.24998626  1  0  1.277647  0  1.513053  0  0  1.097177  0  1.957766  0  0  1.156188  0  1.896027  0  0  0.785048  1.054749  0  2.000621  0
Cd  Cd1  1  0.19109738  0.00015358  0.75001150  1  0  1.277655  0  1.513034  0  0  1.097206  0  1.957722  0  0  1.156218  0  1.895985  0  0  0.785033  1.054774  0  2.000581  0
H  H2  1  0.93028914  0.64312792  0.30455067  1  0  0.432555  0  0.871636  0  0  0.399712  0  0.937725  0  0  0.411368  0  0.921145  0  0  0.288229  0.391408  0  0.949515  0
H  H3  1  0.28702248  0.35671234  0.19542820  1  0  0.432212  0  0.871968  0  0  0.399762  0  0.937391  0  0  0.41139  0  0.920863  0  0  0.288633  0.391443  0  0.949192  0
H  H4  1  0.06969023  0.35686500  0.69544864  1  0  0.432629  0  0.871514  0  0  0.399791  0  0.937594  0  0  0.411444  0  0.921017  0  0  0.288244  0.391488  0  0.949384  0
H  H5  1  0.71298268  0.64330246  0.80457339  1  0  0.432248  0  0.87192  0  0  0.399818  0  0.937322  0  0  0.41145  0  0.920789  0  0  0.288639  0.391491  0  0.94913  0
H  H6  1  0.17186923  0.89052405  0.33130658  1  0  0.437405  0  0.865789  0  0  0.402958  0  0.934646  0  0  0.414371  0  0.918246  0  0  0.291143  0.394858  0  0.946268  0
H  H7  1  0.28118558  0.10934473  0.16864169  1  0  0.436962  0  0.866305  0  0  0.402404  0  0.935366  0  0  0.413821  0  0.918965  0  0  0.290942  0.394273  0  0.947026  0
H  H8  1  0.82812906  0.10946217  0.66869144  1  0  0.437458  0  0.865732  0  0  0.403009  0  0.934593  0  0  0.414428  0  0.918183  0  0  0.291169  0.394912  0  0.946212  0
H  H9  1  0.71883420  0.89067333  0.83136220  1  0  0.43687  0  0.866415  0  0  0.402303  0  0.935492  0  0  0.413719  0  0.919093  0  0  0.290899  0.394172  0  0.947151  0
H  H10  1  0.63932778  0.53259119  0.41114550  1  0  0.091611  0  0.96028  0  0  0.098761  0  1.029705  0  0  0.099315  0  1.031051  0  0  0.110477  0.09835  0  1.028947  0
H  H11  1  0.10645376  0.46728293  0.08884791  1  0  0.091587  0  0.959976  0  0  0.098788  0  1.02949  0  0  0.099335  0  1.030837  0  0  0.110516  0.098369  0  1.028713  0
H  H12  1  0.36068129  0.46740545  0.58884787  1  0  0.091572  0  0.960409  0  0  0.098738  0  1.029786  0  0  0.099291  0  1.031136  0  0  0.110442  0.098316  0  1.029014  0
H  H13  1  0.89355415  0.53273365  0.91115208  1  0  0.091587  0  0.959812  0  0  0.098769  0  1.029371  0  0  0.099324  0  1.030709  0  0  0.110487  0.098344  0  1.028589  0
H  H14  1  0.42642529  0.49825579  0.33224659  1  0  0.099525  0  0.925421  0  0  0.110837  0  0.987024  0  0  0.112988  0  0.985201  0  0  0.113023  0.109301  0  0.988485  0
H  H15  1  0.92763333  0.50127776  0.16776621  1  0  0.099498  0  0.926297  0  0  0.110753  0  0.98818  0  0  0.112913  0  0.986345  0  0  0.112623  0.109221  0  0.989579  0
H  H16  1  0.57356841  0.50172868  0.66775247  1  0  0.099532  0  0.925182  0  0  0.110781  0  0.986911  0  0  0.112934  0  0.985084  0  0  0.112979  0.109231  0  0.988366  0
H  H17  1  0.07237550  0.49871839  0.83223594  1  0  0.09958  0  0.926292  0  0  0.110853  0  0.988163  0  0  0.113023  0  0.986316  0  0  0.112652  0.109317  0  0.98956  0
H  H18  1  0.83491863  0.08238816  0.49450012  1  0  0.121644  0  0.936279  0  0  0.13214  0  0.994914  0  0  0.135751  0  0.992642  0  0  0.10934  0.129405  0  0.996866  0
H  H19  1  0.75297326  0.91763966  0.00554512  1  0  0.121378  0  0.935752  0  0  0.131817  0  0.994663  0  0  0.135471  0  0.992318  0  0  0.10934  0.129214  0  0.996383  0
H  H20  1  0.16509767  0.91760808  0.50550038  1  0  0.121694  0  0.936375  0  0  0.132225  0  0.994945  0  0  0.135801  0  0.992728  0  0  0.109326  0.129495  0  0.996891  0
H  H21  1  0.24702648  0.08237173  0.99445692  1  0  0.121508  0  0.935971  0  0  0.131923  0  0.99487  0  0  0.135572  0  0.992528  0  0  0.109366  0.12932  0  0.996591  0
H  H22  1  0.39562152  0.73410997  0.42733520  1  0  0.114581  0  0.963964  0  0  0.126428  0  1.023236  0  0  0.129804  0  1.021127  0  0  0.105883  0.124022  0  1.024852  0
H  H23  1  0.66093519  0.26580547  0.07265608  1  0  0.114495  0  0.963779  0  0  0.126432  0  1.022878  0  0  0.129797  0  1.020782  0  0  0.105923  0.124012  0  1.024535  0
H  H24  1  0.60440094  0.26589119  0.57266820  1  0  0.114617  0  0.963994  0  0  0.126483  0  1.023243  0  0  0.129848  0  1.021132  0  0  0.105942  0.124078  0  1.024872  0
H  H25  1  0.33904675  0.73418890  0.92734767  1  0  0.114594  0  0.963765  0  0  0.126491  0  1.022915  0  0  0.129857  0  1.020815  0  0  0.105968  0.12407  0  1.024571  0
C  C26  1  0.60399422  0.26153366  0.33465315  1  0  0.676431  0  3.852215  0  0  0.617897  0  4.157006  0  0  0.651406  0  4.151665  0  0  0.209949  0.595118  0  4.159851  0
C  C27  1  0.34199845  0.73829987  0.16539758  1  0  0.675865  0  3.853172  0  0  0.61826  0  4.156975  0  0  0.651829  0  4.151578  0  0  0.209551  0.595415  0  4.159885  0
C  C28  1  0.39599185  0.73845781  0.66534172  1  0  0.676562  0  3.852282  0  0  0.618017  0  4.157163  0  0  0.651529  0  4.151818  0  0  0.209927  0.595209  0  4.160009  0
C  C29  1  0.65800873  0.26171527  0.83459798  1  0  0.675641  0  3.853587  0  0  0.618234  0  4.157137  0  0  0.651805  0  4.15173  0  0  0.209605  0.59539  0  4.160044  0
C  C30  1  0.47982162  0.40636711  0.37394669  1  0  -0.082905  0  3.661239  0  0  -0.134169  0  3.915389  0  0  -0.132332  0  3.917729  0  0  -0.069164  -0.135624  0  3.914008  0
C  C31  1  0.07299304  0.59337660  0.12610228  1  0  -0.084868  0  3.662357  0  0  -0.136207  0  3.917276  0  0  -0.134473  0  3.919714  0  0  -0.069642  -0.137504  0  3.915601  0
C  C32  1  0.52017180  0.59362793  0.62604498  1  0  -0.082858  0  3.661143  0  0  -0.134167  0  3.915457  0  0  -0.132331  0  3.917809  0  0  -0.069106  -0.13553  0  3.913957  0
C  C33  1  0.92701917  0.40663003  0.87389413  1  0  -0.084845  0  3.662291  0  0  -0.1363  0  3.917204  0  0  -0.134529  0  3.919624  0  0  -0.069731  -0.137583  0  3.915538  0
C  C34  1  0.13067910  0.39305763  0.45544835  1  0  0.23166  0  3.821732  0  0  0.222464  0  4.086822  0  0  0.231169  0  4.103869  0  0  0.065165  0.216346  0  4.075278  0
C  C35  1  0.73751965  0.60685019  0.04459520  1  0  0.230936  0  3.822026  0  0  0.22181  0  4.087739  0  0  0.230491  0  4.104784  0  0  0.065823  0.215688  0  4.076238  0
C  C36  1  0.86934122  0.60693182  0.54455251  1  0  0.231667  0  3.821777  0  0  0.222452  0  4.086844  0  0  0.231163  0  4.103874  0  0  0.065169  0.216334  0  4.075313  0
C  C37  1  0.26248320  0.39314888  0.95541529  1  0  0.230872  0  3.821897  0  0  0.221723  0  4.087582  0  0  0.230443  0  4.104617  0  0  0.065769  0.215626  0  4.076058  0
C  C38  1  0.90676938  0.26551519  0.49664487  1  0  -0.147454  0  3.737184  0  0  -0.169093  0  3.994116  0  0  -0.171169  0  4.010749  0  0  -0.102381  -0.16754  0  3.983051  0
C  C39  1  0.64143851  0.73450148  0.00339571  1  0  -0.147091  0  3.73528  0  0  -0.168558  0  3.992348  0  0  -0.170648  0  4.008912  0  0  -0.1022  -0.167096  0  3.981284  0
C  C40  1  0.09325923  0.73449455  0.50335658  1  0  -0.147526  0  3.737362  0  0  -0.169169  0  3.994206  0  0  -0.171218  0  4.010827  0  0  -0.102394  -0.167623  0  3.983136  0
C  C41  1  0.35853196  0.26548109  0.99660715  1  0  -0.147287  0  3.73573  0  0  -0.16878  0  3.992846  0  0  -0.170861  0  4.009388  0  0  -0.102293  -0.167322  0  3.981782  0
C  C42  1  0.22361452  0.62896681  0.45891198  1  0  -0.177929  0  3.763696  0  0  -0.199458  0  4.017995  0  0  -0.202095  0  4.036442  0  0  -0.110386  -0.197581  0  4.005477  0
C  C43  1  0.59426218  0.37098427  0.04109168  1  0  -0.178216  0  3.763237  0  0  -0.199321  0  4.017396  0  0  -0.201946  0  4.035834  0  0  -0.111037  -0.197546  0  4.005101  0
C  C44  1  0.77639590  0.37103254  0.54109357  1  0  -0.177928  0  3.763709  0  0  -0.19949  0  4.01804  0  0  -0.202111  0  4.036467  0  0  -0.110466  -0.197624  0  4.005547  0
C  C45  1  0.40571913  0.62902367  0.95891137  1  0  -0.178294  0  3.763334  0  0  -0.19941  0  4.017515  0  0  -0.202029  0  4.035943  0  0  -0.111095  -0.197638  0  4.005209  0
O  O46  1  0.81119349  0.36386267  0.29576782  1  0  -0.651079  0  1.985719  0  0  -0.580483  0  2.221048  0  0  -0.610505  0  2.211473  0  0  -0.315614  -0.559381  0  2.227003  0
O  O47  1  0.44687957  0.63614652  0.20430385  1  0  -0.650289  0  1.985615  0  0  -0.580336  0  2.22089  0  0  -0.610439  0  2.211379  0  0  -0.315238  -0.559184  0  2.226785  0
O  O48  1  0.18878638  0.63612382  0.70422525  1  0  -0.651199  0  1.985889  0  0  -0.580575  0  2.221219  0  0  -0.610598  0  2.211643  0  0  -0.315576  -0.559475  0  2.227186  0
O  O49  1  0.55313095  0.36387529  0.79569355  1  0  -0.650176  0  1.985817  0  0  -0.580336  0  2.22103  0  0  -0.610454  0  2.211567  0  0  -0.315258  -0.559189  0  2.226931  0
O  O50  1  0.50691063  0.04863800  0.33908116  1  0  -0.639051  0  2.023849  0  0  -0.566118  0  2.26249  0  0  -0.595914  0  2.252348  0  0  -0.306024  -0.545297  0  2.268863  0
O  O51  1  0.45789354  0.95116884  0.16095562  1  0  -0.638235  0  2.024259  0  0  -0.565865  0  2.262929  0  0  -0.595668  0  2.252793  0  0  -0.305838  -0.544928  0  2.269164  0
O  O52  1  0.49309443  0.95136546  0.66091130  1  0  -0.639025  0  2.023762  0  0  -0.566136  0  2.262478  0  0  -0.595935  0  2.252333  0  0  -0.305993  -0.545313  0  2.268859  0
O  O53  1  0.54210667  0.04883606  0.83904129  1  0  -0.638186  0  2.024346  0  0  -0.565874  0  2.262931  0  0  -0.595676  0  2.252792  0  0  -0.305863  -0.544941  0  2.269175  0
O  O54  1  0.24643522  0.27357863  0.41328749  1  0  -0.268195  0  2.341478  0  0  -0.201062  0  2.578648  0  0  -0.217652  0  2.581901  0  0  -0.186108  -0.18923  0  2.576115  0
O  O55  1  0.97258306  0.72618563  0.08681503  1  0  -0.265327  0  2.341685  0  0  -0.199094  0  2.579854  0  0  -0.215603  0  2.583103  0  0  -0.185613  -0.187326  0  2.577226  0
O  O56  1  0.75357230  0.72642606  0.58671326  1  0  -0.268272  0  2.34154  0  0  -0.200987  0  2.578607  0  0  -0.217576  0  2.581862  0  0  -0.186066  -0.189182  0  2.576046  0
O  O57  1  0.02739170  0.27380551  0.91318588  1  0  -0.265306  0  2.34117  0  0  -0.198954  0  2.579288  0  0  -0.215556  0  2.58259  0  0  -0.185489  -0.187208  0  2.576669  0
O  O58  1  0.97663895  0.80809436  0.31515380  1  0  -0.877785  0  1.893735  0  0  -0.809448  0  2.115915  0  0  -0.834608  0  2.078424  0  0  -0.596004  -0.791635  0  2.142107  0
O  O59  1  0.16836073  0.19180695  0.18473690  1  0  -0.877499  0  1.894707  0  0  -0.809123  0  2.116637  0  0  -0.834288  0  2.07916  0  0  -0.596298  -0.791262  0  2.142781  0
O  O60  1  0.02334774  0.19189838  0.68484880  1  0  -0.877948  0  1.893649  0  0  -0.809597  0  2.115817  0  0  -0.834756  0  2.07832  0  0  -0.596068  -0.791766  0  2.141969  0
O  O61  1  0.83165808  0.80820917  0.81527133  1  0  -0.877506  0  1.894782  0  0  -0.809106  0  2.116604  0  0  -0.834287  0  2.079143  0  0  -0.596282  -0.791232  0  2.14276  0
