# generated using pymatgen
data_CuH6C6BrN7
_symmetry_space_group_name_H-M   'P 1'
_cell_length_a   5.69194148
_cell_length_b   8.69094226
_cell_length_c   10.75619026
_cell_angle_alpha   101.16165835
_cell_angle_beta   96.10914162
_cell_angle_gamma   94.33795524
_symmetry_Int_Tables_number   1
_chemical_formula_structural   CuH6C6BrN7
_chemical_formula_sum   'Cu2 H12 C12 Br2 N14'
_cell_volume   516.52947891
_cell_formula_units_Z   2
loop_
 _symmetry_equiv_pos_site_id
 _symmetry_equiv_pos_as_xyz
  1  'x, y, z'
loop_
 _atom_site_type_symbol
 _atom_site_label
 _atom_site_symmetry_multiplicity
 _atom_site_fract_x
 _atom_site_fract_y
 _atom_site_fract_z
 _atom_site_occupancy
 _atom_site_pbe_bader_charge
 _atom_site_pbe_bader_spin_density
 _atom_site_pbe_cm5_charge
 _atom_site_pbe_ddec_charge
 _atom_site_pbe_ddec_spin_density
 _atom_site_pbe_ddec_sum_bond_order
 _atom_site_pbe_magmom
Cu  Cu0  1  0.24831843  0.47387549  0.56186479  1  0.995533  0.479356  0.753542  0.72018  0.651027  2.477121  0.478
Cu  Cu1  1  0.75167751  0.52613159  0.43814272  1  0.995582  0.479368  0.753548  0.72022  0.651038  2.477098  0.478
H  H2  1  0.44656057  0.29246793  0.97212346  1  0.109654  0.001898  0.100558  0.121501  0.001375  1.064755  0.001
H  H3  1  0.55344686  0.70752147  0.02787634  1  0.109507  0.001899  0.100583  0.121534  0.001376  1.064832  0.001
H  H4  1  0.77023602  0.04903641  0.65382486  1  0.126501  0.001586  0.104642  0.120435  0.001283  1.034918  0.001
H  H5  1  0.22974676  0.95095307  0.34616235  1  0.125999  0.001587  0.104598  0.120398  0.001284  1.034934  0.001
H  H6  1  0.52206757  0.18898864  0.51323365  1  0.127899  0.002111  0.115663  0.084753  0.00106  1.036892  0.002
H  H7  1  0.47791074  0.81100670  0.48676353  1  0.127855  0.002111  0.115734  0.084773  0.00106  1.036797  0.002
H  H8  1  0.77195996  0.96241534  0.88890249  1  0.122561  0.000333  0.091928  0.136123  0.000271  1.041205  0.0
H  H9  1  0.22805826  0.03757523  0.11109626  1  0.122603  0.000333  0.091926  0.1361  0.00027  1.041292  0.0
H  H10  1  0.75691523  0.12772692  0.01482577  1  0.045771  0.000169  0.09052  0.134774  0.000121  0.997007  0.0
H  H11  1  0.24308923  0.87226604  0.98517070  1  0.045731  0.000169  0.090495  0.13473  0.000121  0.996973  0.0
H  H12  1  0.97951784  0.12971126  0.91081675  1  0.060411  -8.9e-05  0.094427  0.141863  -0.000119  1.003599  0.0
H  H13  1  0.02049157  0.87029111  0.08918428  1  0.060468  -8.9e-05  0.094387  0.141842  -0.000119  1.003638  0.0
C  C14  1  0.34481197  0.33905153  0.78552622  1  0.404405  0.001087  0.105525  0.235894  0.000667  3.992826  0.001
C  C15  1  0.65520377  0.66094611  0.21447536  1  0.404134  0.001087  0.105424  0.235759  0.000668  3.993062  0.001
C  C16  1  0.47169672  0.26614051  0.87144853  1  0.020382  0.00497  -0.094073  -0.241093  0.003815  3.922123  0.004
C  C17  1  0.52831070  0.73384889  0.12855312  1  0.020818  0.004971  -0.094055  -0.241067  0.003816  3.922281  0.004
C  C18  1  0.63485864  0.16257849  0.82626092  1  0.060344  -0.000388  0.020073  0.248034  -0.000585  3.929916  0.0
C  C19  1  0.36514226  0.83741445  0.17373905  1  0.060167  -0.000387  0.020123  0.248024  -0.000584  3.929932  0.0
C  C20  1  0.64874820  0.13046439  0.69433123  1  0.019799  0.006318  -0.089869  -0.193148  0.004644  3.911546  0.005
C  C21  1  0.35124194  0.86952740  0.30566608  1  0.020323  0.006318  -0.089898  -0.193153  0.004645  3.911671  0.005
C  C22  1  0.51429642  0.20760421  0.61555659  1  0.403969  0.000925  0.040961  0.116845  0.000236  3.944955  0.0
C  C23  1  0.48569302  0.79239466  0.38444180  1  0.403964  0.000925  0.040934  0.116875  0.000236  3.944797  0.0
C  C24  1  0.79243936  0.09184968  0.91571341  1  -0.098785  0.000784  -0.238345  -0.421574  0.00053  3.917072  0.001
C  C25  1  0.20756545  0.90814563  0.08428438  1  -0.098761  0.000783  -0.238275  -0.421456  0.000529  3.917143  0.001
Br  Br26  1  0.12542386  0.48413741  0.84101784  1  -0.003972  0.004429  0.083761  -0.040824  0.002808  1.686269  0.005
Br  Br27  1  0.87460051  0.51587080  0.15899336  1  -0.003679  0.004425  0.083767  -0.040793  0.002804  1.686397  0.005
N  N28  1  0.93730819  0.35140957  0.48424149  1  -0.325185  0.101705  -0.370811  -0.564155  0.07562  3.364314  0.091
N  N29  1  0.06268898  0.64859397  0.51576553  1  -0.325408  0.101718  -0.370792  -0.564075  0.075624  3.364152  0.091
N  N30  1  0.91571419  0.21618149  0.42521495  1  -0.366372  0.007615  0.097628  0.432056  -0.002001  4.410783  -0.006
N  N31  1  0.08428093  0.78383151  0.57478693  1  -0.365936  0.007615  0.097578  0.432  -0.001991  4.410955  -0.006
N  N32  1  0.89048857  0.08538037  0.37154778  1  0.120743  0.118451  -0.14116  -0.295495  0.080464  2.548034  0.087
N  N33  1  0.10950432  0.91462913  0.62844319  1  0.120562  0.118398  -0.141112  -0.295468  0.080427  2.548403  0.086
N  N34  1  0.54468159  0.61941007  0.61895839  1  -0.244156  0.078178  -0.326244  -0.533502  0.056547  3.14242  0.069
N  N35  1  0.45532796  0.38059346  0.38104656  1  -0.244371  0.078239  -0.326234  -0.533548  0.056591  3.141956  0.069
N  N36  1  0.63094878  0.65253701  0.72938637  1  -0.366401  0.001403  0.085736  0.41909  -0.007148  4.448262  -0.01
N  N37  1  0.36904410  0.34746071  0.27060181  1  -0.366426  0.001426  0.085557  0.418776  -0.007125  4.448425  -0.01
N  N38  1  0.71955198  0.68732882  0.83524741  1  0.006802  0.112458  -0.165588  -0.332899  0.075698  2.651629  0.082
N  N39  1  0.28045226  0.31267471  0.16475909  1  0.006997  0.112351  -0.165373  -0.332491  0.075625  2.652155  0.081
N  N40  1  0.36841803  0.31486591  0.66084673  1  -1.21999  0.076721  -0.358908  -0.288903  0.053689  3.632825  0.066
N  N41  1  0.63157917  0.68513765  0.33915564  1  -1.220046  0.076738  -0.35888  -0.288937  0.053699  3.632744  0.066
