# generated using pymatgen
data_CoH13PtC19N7O
_symmetry_space_group_name_H-M   'P 1'
_cell_length_a   9.63902884
_cell_length_b   9.63902101
_cell_length_c   11.55534187
_cell_angle_alpha   81.01181048
_cell_angle_beta   81.01220001
_cell_angle_gamma   70.94753101
_symmetry_Int_Tables_number   1
_chemical_formula_structural   CoH13PtC19N7O
_chemical_formula_sum   'Co2 H26 Pt2 C38 N14 O2'
_cell_volume   995.95551449
_cell_formula_units_Z   2
loop_
 _symmetry_equiv_pos_site_id
 _symmetry_equiv_pos_as_xyz
  1  'x, y, z'
loop_
 _atom_site_type_symbol
 _atom_site_label
 _atom_site_symmetry_multiplicity
 _atom_site_fract_x
 _atom_site_fract_y
 _atom_site_fract_z
 _atom_site_occupancy
 _atom_site_hle17_ddec_charge
 _atom_site_hle17_ddec_spin_density
 _atom_site_hle17_ddec_sum_bond_order
 _atom_site_hle17_magmom
 _atom_site_hse06_10hf_ddec_charge
 _atom_site_hse06_10hf_ddec_spin_density
 _atom_site_hse06_10hf_ddec_sum_bond_order
 _atom_site_hse06_10hf_magmom
 _atom_site_hse06_ddec_charge
 _atom_site_hse06_ddec_spin_density
 _atom_site_hse06_ddec_sum_bond_order
 _atom_site_hse06_magmom
 _atom_site_pbe_cm5_charge
 _atom_site_pbe_ddec_charge
 _atom_site_pbe_ddec_spin_density
 _atom_site_pbe_ddec_sum_bond_order
 _atom_site_pbe_magmom
Co  Co0  1  0.24290978  0.75708549  0.24999990  1  0.731504  -1.227265  2.623435  -1.103  0.703155  -1.060553  3.069055  -0.989  0.741104  -1.038567  3.014891  -0.974  0.735169  0.685448  -1.06252  3.097579  -0.983
Co  Co1  1  0.75708911  0.24290772  0.74999959  1  0.731457  -1.227238  2.623382  -1.103  0.703257  -1.060551  3.068894  -0.989  0.741148  -1.038574  3.014785  -0.974  0.735177  0.685493  -1.062522  3.097419  -0.983
H  H2  1  0.41736999  0.47672442  0.27354661  1  0.4209  -0.000141  0.886513  0.0  0.38667  -0.000133  0.955635  0.0  0.397044  -8e-05  0.940531  0.0  0.291702  0.380132  -0.00016  0.965045  0.0
H  H3  1  0.52327684  0.58262955  0.22645669  1  0.420996  -0.000141  0.88638  0.0  0.38678  -0.000133  0.955478  0.0  0.397154  -8e-05  0.940373  0.0  0.291718  0.380243  -0.00016  0.964887  0.0
H  H4  1  0.58262102  0.52327773  0.72644929  1  0.420981  -0.000141  0.886377  0.0  0.386773  -0.000133  0.955453  0.0  0.397138  -8e-05  0.940365  0.0  0.291729  0.380235  -0.00016  0.964864  0.0
H  H5  1  0.47672114  0.41737679  0.77354913  1  0.42097  -0.000141  0.886381  0.0  0.386766  -0.000133  0.955452  0.0  0.397129  -8e-05  0.940367  0.0  0.291735  0.380228  -0.00016  0.964862  0.0
H  H6  1  0.93406689  0.23907206  0.08061000  1  0.102654  0.000809  0.99277  0.001  0.102589  2.5e-05  1.071871  0.0  0.106516  6.1e-05  1.069198  0.0  0.095477  0.099449  -6.1e-05  1.074433  0.0
H  H7  1  0.76092593  0.06593364  0.41938961  1  0.102629  0.00081  0.992764  0.001  0.102539  2.5e-05  1.071897  0.0  0.106466  6.1e-05  1.069222  0.0  0.095458  0.099412  -6.1e-05  1.074445  0.0
H  H8  1  0.06593065  0.76091905  0.91938298  1  0.102702  0.000812  0.992763  0.001  0.102595  2.6e-05  1.071921  0.0  0.106515  6.1e-05  1.06926  0.0  0.095462  0.099444  -6.1e-05  1.074485  0.0
H  H9  1  0.23908044  0.93406933  0.58061388  1  0.102668  0.000808  0.992702  0.001  0.102544  2.6e-05  1.071897  0.0  0.106466  6.1e-05  1.069231  0.0  0.095467  0.099407  -6.1e-05  1.074449  0.0
H  H10  1  0.53799943  0.83869073  0.85167287  1  0.116229  0.000223  0.944174  0.0  0.124834  2.9e-05  1.00086  0.0  0.12741  2.9e-05  1.000998  0.0  0.111649  0.122877  2.3e-05  1.00104  0.0
H  H11  1  0.16130885  0.46199775  0.64832713  1  0.1162  0.000227  0.944198  0.0  0.124802  2.9e-05  1.000889  0.0  0.127378  2.9e-05  1.001026  0.0  0.111614  0.122845  2.3e-05  1.001068  0.0
H  H12  1  0.46200600  0.16128822  0.14831802  1  0.116391  0.00022  0.944086  0.0  0.124951  2.9e-05  1.0008  0.0  0.127532  2.9e-05  1.000927  0.0  0.111638  0.122996  2.3e-05  1.000982  0.0
H  H13  1  0.83870819  0.53799732  0.35168209  1  0.116346  0.000223  0.944159  0.0  0.124918  2.9e-05  1.000864  0.0  0.127497  2.9e-05  1.000994  0.0  0.111643  0.122963  2.3e-05  1.001046  0.0
H  H14  1  0.13950466  0.18722051  0.94562052  1  0.103984  0.000335  0.982844  0.0  0.107552  6.7e-05  1.054967  0.0  0.110099  5.8e-05  1.054612  0.0  0.099939  0.105515  2.2e-05  1.055714  0.0
H  H15  1  0.81278110  0.86049663  0.55438032  1  0.103976  0.000336  0.982908  0.0  0.107539  6.6e-05  1.055042  0.0  0.110086  5.8e-05  1.054685  0.0  0.099938  0.105501  2.2e-05  1.055789  0.0
H  H16  1  0.86050652  0.81277041  0.05437518  1  0.103962  0.000341  0.98284  0.0  0.107518  6.6e-05  1.054967  0.0  0.110067  5.8e-05  1.054607  0.0  0.099915  0.105478  2.2e-05  1.055716  0.0
H  H17  1  0.18722583  0.13949754  0.44562329  1  0.103998  0.000345  0.982849  0.0  0.107534  6.6e-05  1.055005  0.0  0.110092  5.8e-05  1.054637  0.0  0.099922  0.105497  2.2e-05  1.055753  0.0
H  H18  1  0.36633556  0.09555572  0.80555791  1  0.104817  -9.3e-05  0.943209  -0.001  0.111934  0.000149  1.006522  0.0  0.11489  9.5e-05  1.004233  0.0  0.108086  0.109655  0.000186  1.008383  0.0
H  H19  1  0.90444499  0.63366490  0.69444316  1  0.10483  -8.9e-05  0.943206  -0.001  0.111942  0.000149  1.006525  0.0  0.114898  9.5e-05  1.004237  0.0  0.108089  0.109663  0.000186  1.008386  0.0
H  H20  1  0.63367563  0.90443521  0.19443693  1  0.104941  -9.2e-05  0.943204  -0.001  0.111993  0.000149  1.006581  0.0  0.114948  9.5e-05  1.004294  0.0  0.108087  0.109717  0.000186  1.008438  0.0
H  H21  1  0.09556087  0.36632925  0.30556231  1  0.104921  -8.9e-05  0.943232  -0.001  0.111964  0.000148  1.006624  0.0  0.114919  9.4e-05  1.004338  0.0  0.10809  0.109688  0.000186  1.00848  0.0
H  H22  1  0.48329000  0.69048988  0.04086555  1  0.0987  8.3e-05  0.938566  0.0  0.105748  0.000223  0.998528  0.0  0.108058  0.000158  0.995884  0.0  0.126769  0.103882  0.000264  1.000825  0.0
H  H23  1  0.30950707  0.51670888  0.45913275  1  0.098573  8.5e-05  0.938641  0.0  0.10564  0.000223  0.998593  0.0  0.10795  0.000158  0.995948  0.0  0.126714  0.103774  0.000264  1.000892  0.0
H  H24  1  0.51670557  0.30949024  0.95912984  1  0.098552  8.6e-05  0.938678  0.0  0.105625  0.000223  0.998637  0.0  0.107935  0.000158  0.995992  0.0  0.126693  0.103749  0.000264  1.000939  0.0
H  H25  1  0.69050810  0.48329618  0.54087118  1  0.098653  8.3e-05  0.938657  0.0  0.105698  0.000223  0.99863  0.0  0.108007  0.000158  0.995985  0.0  0.126724  0.103826  0.000264  1.00093  0.0
H  H26  1  0.73530071  0.26469906  0.24999900  1  0.109536  -0.00047  0.934473  -0.002  0.118894  0.000245  0.991495  0.0  0.122162  0.000121  0.988871  0.0  0.110707  0.116595  0.000296  0.992948  0.0
H  H27  1  0.26470212  0.73529851  0.74999950  1  0.10958  -0.000477  0.93453  -0.002  0.118952  0.000246  0.99152  0.0  0.122199  0.000122  0.98892  0.0  0.110725  0.116649  0.000296  0.992976  0.0
Pt  Pt28  1  0.49999687  0.00001422  0.49999780  1  0.060348  -0.002554  4.116965  -0.005  0.091717  -0.003708  4.677701  -0.004  0.082534  -0.001991  4.653272  -0.003  0.534207  0.099494  -0.004726  4.693139  -0.006
Pt  Pt29  1  0.99998672  0.50000711  0.00000570  1  0.060333  -0.002554  4.116936  -0.005  0.091558  -0.003708  4.677837  -0.004  0.082385  -0.001991  4.653395  -0.003  0.534123  0.099343  -0.004726  4.69326  -0.006
C  C30  1  0.42442285  0.91357874  0.38853010  1  0.055846  0.013694  3.643559  0.004  0.040083  0.001417  3.988409  -0.005  0.048864  0.002845  3.998772  -0.003  -0.009953  0.034694  -1.9e-05  3.980242  -0.007
C  C31  1  0.08642449  0.57558164  0.11147119  1  0.055982  0.013734  3.643683  0.004  0.040246  0.001419  3.988543  -0.005  0.049028  0.00285  3.998902  -0.003  -0.009831  0.034855  -1.6e-05  3.980374  -0.007
C  C32  1  0.57557791  0.08643979  0.61146529  1  0.056009  0.013757  3.643656  0.004  0.040236  0.001414  3.988526  -0.005  0.049021  0.002848  3.998882  -0.003  -0.00987  0.034844  -1.5e-05  3.980357  -0.007
C  C33  1  0.91356229  0.42442702  0.88853569  1  0.05593  0.013716  3.643667  0.004  0.040182  0.001417  3.988553  -0.005  0.048963  0.002848  3.998909  -0.003  -0.009872  0.034791  -1.7e-05  3.980382  -0.007
C  C34  1  0.54627304  0.80959736  0.60257907  1  0.072721  0.00027  3.643479  0.0  0.0439  0.000139  3.989792  0.0  0.053494  0.000199  4.000367  0.0  -0.006183  0.03755  7.3e-05  3.982213  0.0
C  C35  1  0.19040334  0.45372847  0.89742212  1  0.072791  0.00026  3.643351  0.0  0.044008  0.000139  3.989662  0.0  0.0536  0.000198  4.000235  0.0  -0.006138  0.037656  7.3e-05  3.982082  0.0
C  C36  1  0.45371869  0.19042353  0.39741191  1  0.072439  0.000264  3.643493  0.0  0.043594  0.00014  3.989834  0.0  0.053188  0.000199  4.000413  0.0  -0.00629  0.037243  7.3e-05  3.982255  0.0
C  C37  1  0.80957536  0.54628243  0.10258892  1  0.072681  0.000242  3.643658  0.0  0.043873  0.000138  3.989998  0.0  0.053464  0.000198  4.000574  0.0  -0.006242  0.037521  7.3e-05  3.982419  0.0
C  C38  1  0.19375255  0.98885444  0.06695546  1  0.160015  0.012788  3.737651  0.007  0.158519  0.005717  3.976972  0.003  0.165361  0.003554  3.994634  0.002  0.116137  0.153378  0.007389  3.966145  0.004
C  C39  1  0.01114468  0.80624896  0.43304583  1  0.159914  0.012802  3.73771  0.007  0.158421  0.005722  3.977049  0.003  0.165264  0.003561  3.994711  0.002  0.116141  0.153282  0.00739  3.966223  0.004
C  C40  1  0.80624117  0.01113891  0.93303771  1  0.159941  0.012837  3.737636  0.007  0.158376  0.005719  3.977056  0.003  0.165219  0.003558  3.994718  0.002  0.116029  0.153232  0.007388  3.96622  0.004
C  C41  1  0.98885964  0.19376057  0.56696232  1  0.159913  0.012812  3.737489  0.007  0.158381  0.005716  3.976872  0.003  0.165224  0.003551  3.994534  0.002  0.116041  0.153241  0.007389  3.966038  0.004
C  C42  1  0.94340557  0.15313370  0.15498486  1  -0.127808  -0.010947  3.687788  -0.017  -0.149318  -0.00101  3.944385  -0.003  -0.156143  -0.001874  3.959877  -0.003  -0.07813  -0.145414  0.000192  3.93454  -0.002
C  C43  1  0.84686748  0.05659392  0.34501736  1  -0.127695  -0.010957  3.687591  -0.017  -0.149185  -0.001012  3.944206  -0.003  -0.15601  -0.001874  3.959696  -0.003  -0.078068  -0.145292  0.000192  3.934357  -0.002
C  C44  1  0.05659402  0.84685733  0.84501221  1  -0.127859  -0.010971  3.687782  -0.017  -0.149362  -0.001012  3.944395  -0.003  -0.156182  -0.001876  3.959865  -0.003  -0.078153  -0.145443  0.000191  3.934552  -0.002
C  C45  1  0.15313818  0.94340797  0.65498548  1  -0.127809  -0.010956  3.687763  -0.017  -0.149279  -0.00101  3.944383  -0.003  -0.156104  -0.001874  3.959868  -0.003  -0.078138  -0.145373  0.000191  3.934535  -0.002
C  C46  1  0.44030867  0.88484095  0.91166744  1  -0.104685  -0.000706  3.703726  -0.003  -0.11896  0.000869  3.956874  0.0  -0.125481  0.00013  3.976786  0.0  -0.075297  -0.114863  0.001756  3.944626  0.0
C  C47  1  0.11515765  0.55968977  0.58833300  1  -0.104659  -0.000715  3.703664  -0.003  -0.118929  0.000877  3.956787  0.0  -0.125451  0.000134  3.976703  0.0  -0.075233  -0.114831  0.001756  3.944539  0.0
C  C48  1  0.55969303  0.11515008  0.08832851  1  -0.104858  -0.000702  3.703772  -0.003  -0.119084  0.000875  3.956826  0.0  -0.125604  0.000135  3.976738  0.0  -0.075214  -0.114989  0.001757  3.944577  0.0
C  C49  1  0.88484723  0.44030772  0.41167046  1  -0.104758  -0.000698  3.703732  -0.003  -0.118999  0.000869  3.956799  0.0  -0.125518  0.000132  3.976708  0.0  -0.075207  -0.114905  0.001758  3.944551  0.0
C  C50  1  0.21795585  0.07800127  0.96363048  1  -0.128798  -0.001449  3.70002  -0.003  -0.146122  0.00031  3.945453  -0.001  -0.153119  -4.5e-05  3.966739  -0.001  -0.077329  -0.141994  0.000632  3.93276  -0.001
C  C51  1  0.92199932  0.78204510  0.53637105  1  -0.128741  -0.001441  3.700213  -0.003  -0.146072  0.000308  3.945636  -0.001  -0.153066  -4.9e-05  3.966922  -0.001  -0.077323  -0.141943  0.000632  3.932944  -0.001
C  C52  1  0.78204164  0.92199305  0.03636991  1  -0.128669  -0.001472  3.699973  -0.003  -0.145932  0.000311  3.945363  -0.001  -0.152927  -4.5e-05  3.96665  -0.001  -0.077238  -0.141802  0.000632  3.932666  -0.001
C  C53  1  0.07800466  0.21795905  0.46362826  1  -0.128742  -0.001472  3.700118  -0.003  -0.146014  0.000312  3.945509  -0.001  -0.153018  -4.1e-05  3.966792  -0.001  -0.077276  -0.141885  0.000633  3.932813  -0.001
C  C54  1  0.06725365  0.02758141  0.15677448  1  0.179199  0.04209  3.736053  0.028  0.17705  0.015575  3.977733  0.009  0.190084  0.011527  3.991074  0.007  0.120148  0.168689  0.01673  3.968991  0.01
C  C55  1  0.97241824  0.93274590  0.34322497  1  0.179207  0.042095  3.736015  0.028  0.17706  0.015576  3.977688  0.009  0.190094  0.011524  3.991027  0.007  0.120133  0.168698  0.016729  3.968951  0.01
C  C56  1  0.93274771  0.97241070  0.84322312  1  0.179145  0.042099  3.735957  0.028  0.177027  0.015578  3.977638  0.009  0.190065  0.011529  3.990973  0.007  0.12015  0.168662  0.016733  3.968888  0.01
C  C57  1  0.02758603  0.06725386  0.65677397  1  0.179265  0.042094  3.735882  0.028  0.177072  0.015573  3.977637  0.009  0.190109  0.011525  3.990972  0.007  0.120129  0.168707  0.016732  3.968891  0.01
C  C58  1  0.34379199  0.02625450  0.88547794  1  0.001445  0.019267  3.707236  0.012  -0.018654  0.007407  3.960715  0.004  -0.013632  0.004795  3.977884  0.003  -0.064374  -0.022538  0.009219  3.950454  0.005
C  C59  1  0.97374607  0.65621004  0.61452308  1  0.001407  0.019244  3.707426  0.012  -0.018691  0.007403  3.960888  0.004  -0.013671  0.004795  3.97806  0.003  -0.064407  -0.022574  0.009218  3.950626  0.005
C  C60  1  0.65620978  0.97373983  0.11451761  1  0.00128  0.019273  3.707612  0.012  -0.0188  0.007398  3.961074  0.004  -0.013781  0.004786  3.978248  0.003  -0.064418  -0.022683  0.009214  3.950811  0.005
C  C61  1  0.02626127  0.34378960  0.38548242  1  0.00135  0.019241  3.707767  0.012  -0.018723  0.0074  3.96122  0.004  -0.013703  0.004786  3.978397  0.003  -0.06438  -0.022604  0.009213  3.950955  0.005
C  C62  1  0.41036986  0.80069036  0.01638202  1  0.139274  0.018116  3.638353  0.011  0.109926  0.007288  3.89244  0.004  0.120002  0.005401  3.907154  0.003  0.058942  0.102694  0.00827  3.884059  0.005
C  C63  1  0.19930840  0.58962815  0.48361739  1  0.139394  0.018135  3.638306  0.012  0.110043  0.007278  3.892365  0.004  0.120119  0.005395  3.90708  0.003  0.059005  0.102812  0.008269  3.883984  0.005
C  C64  1  0.58962556  0.19929753  0.98360727  1  0.139416  0.01811  3.638423  0.011  0.110066  0.007278  3.892432  0.004  0.12014  0.005395  3.907146  0.003  0.05895  0.102843  0.008267  3.88403  0.005
C  C65  1  0.80069933  0.41037692  0.51639262  1  0.139278  0.018107  3.638494  0.011  0.10993  0.007286  3.892515  0.004  0.120004  0.005401  3.90723  0.003  0.058911  0.102708  0.008266  3.88412  0.005
C  C66  1  0.83268468  0.16731140  0.24999885  1  -0.00224  0.054433  3.704886  0.035  -0.021133  0.019113  3.958079  0.011  -0.01142  0.013256  3.970625  0.008  -0.068825  -0.026457  0.021066  3.948859  0.012
C  C67  1  0.16731567  0.83268401  0.74999934  1  -0.002251  0.054495  3.704973  0.035  -0.021131  0.019113  3.958079  0.011  -0.011397  0.01326  3.970627  0.008  -0.068804  -0.026451  0.021069  3.948847  0.012
N  N68  1  0.37540369  0.86398705  0.32426093  1  -0.391881  -0.032904  2.983368  -0.053  -0.360736  -0.026735  3.265495  -0.041  -0.376466  -0.022515  3.278245  -0.035  -0.348773  -0.34956  -0.031648  3.255191  -0.048
N  N69  1  0.13602112  0.62460026  0.17573810  1  -0.391989  -0.032928  2.983589  -0.053  -0.360853  -0.026737  3.265737  -0.041  -0.376585  -0.022518  3.278484  -0.035  -0.34887  -0.349679  -0.03165  3.255436  -0.048
N  N70  1  0.62460474  0.13602702  0.67573234  1  -0.392028  -0.032943  2.983588  -0.053  -0.360913  -0.026736  3.265781  -0.041  -0.376642  -0.022518  3.278529  -0.035  -0.348889  -0.349732  -0.031651  3.255472  -0.048
N  N71  1  0.86397573  0.37540276  0.82426998  1  -0.39194  -0.032917  2.983438  -0.053  -0.360823  -0.026736  3.265604  -0.041  -0.376548  -0.022516  3.278353  -0.035  -0.348848  -0.349646  -0.031649  3.255297  -0.048
N  N72  1  0.57310459  0.69833957  0.66503279  1  -0.433837  0.000203  2.850535  0.0  -0.379802  -5.4e-05  3.095273  0.0  -0.394942  -3.7e-05  3.107374  0.0  -0.34608  -0.369712  -0.000303  3.086608  -0.001
N  N73  1  0.30165967  0.42689459  0.83496577  1  -0.433904  0.000215  2.8505  0.0  -0.379879  -5.3e-05  3.095229  0.0  -0.395019  -3.7e-05  3.107329  0.0  -0.346112  -0.369791  -0.000303  3.086566  -0.001
N  N74  1  0.42687987  0.30167826  0.33494644  1  -0.433516  0.000212  2.850456  0.0  -0.379458  -5.4e-05  3.095179  0.0  -0.394602  -3.7e-05  3.107282  0.0  -0.345915  -0.369369  -0.000303  3.086512  -0.001
N  N75  1  0.69831798  0.57311632  0.16504539  1  -0.433768  0.000234  2.85064  0.0  -0.379729  -5.3e-05  3.09535  0.0  -0.394872  -3.7e-05  3.107451  0.0  -0.345951  -0.369641  -0.000303  3.086684  -0.001
N  N76  1  0.07905898  0.92093978  0.24999990  1  -0.292646  0.017141  3.406725  0.008  -0.260109  0.008652  3.695829  0.005  -0.284385  0.006853  3.710939  0.004  -0.343318  -0.245736  0.008975  3.68489  0.006
N  N77  1  0.92094174  0.07905781  0.74999972  1  -0.292625  0.017137  3.406594  0.008  -0.26011  0.008649  3.695749  0.005  -0.284379  0.006849  3.710852  0.004  -0.343291  -0.245729  0.008971  3.684795  0.006
N  N78  1  0.29139441  0.85170919  0.09386541  1  -0.266345  0.017493  3.30854  0.011  -0.225934  0.007353  3.589892  0.005  -0.248429  0.00557  3.607061  0.003  -0.318255  -0.212547  0.007468  3.578939  0.005
N  N79  1  0.14828619  0.70860582  0.40613453  1  -0.266321  0.017471  3.308574  0.011  -0.225926  0.007356  3.589932  0.005  -0.248422  0.00557  3.607103  0.003  -0.318312  -0.21254  0.00747  3.578976  0.005
N  N80  1  0.70860478  0.14827964  0.90613283  1  -0.266283  0.017466  3.308767  0.011  -0.225885  0.00736  3.590126  0.005  -0.248376  0.005575  3.607299  0.003  -0.318216  -0.212472  0.007471  3.579129  0.005
N  N81  1  0.85171811  0.29139721  0.59386661  1  -0.266302  0.017496  3.308743  0.011  -0.225849  0.00736  3.590025  0.005  -0.248338  0.005577  3.607196  0.003  -0.318197  -0.212446  0.007472  3.579041  0.005
O  O82  1  0.41966946  0.58033451  0.25001926  1  -0.811604  0.000395  2.054513  -0.001  -0.771256  -0.001014  2.276902  -0.002  -0.797384  0.00059  2.244212  0.0  -0.576913  -0.753298  -0.003154  2.296157  -0.005
O  O83  1  0.58033075  0.41966725  0.74999896  1  -0.811611  0.000394  2.054464  -0.001  -0.771322  -0.001016  2.276928  -0.002  -0.797417  0.000588  2.244262  0.0  -0.57695  -0.753358  -0.003156  2.296184  -0.005
