# generated using pymatgen
data_NiH20C14(SN9)2
_symmetry_space_group_name_H-M   'P 1'
_cell_length_a   6.45401825
_cell_length_b   9.25275091
_cell_length_c   10.92277031
_cell_angle_alpha   66.78348613
_cell_angle_beta   83.12706816
_cell_angle_gamma   77.16555481
_symmetry_Int_Tables_number   1
_chemical_formula_structural   NiH20C14(SN9)2
_chemical_formula_sum   'Ni1 H20 C14 S2 N18'
_cell_volume   584.10715971
_cell_formula_units_Z   1
loop_
 _symmetry_equiv_pos_site_id
 _symmetry_equiv_pos_as_xyz
  1  'x, y, z'
loop_
 _atom_site_type_symbol
 _atom_site_label
 _atom_site_symmetry_multiplicity
 _atom_site_fract_x
 _atom_site_fract_y
 _atom_site_fract_z
 _atom_site_occupancy
 _atom_site_hle17_ddec_charge
 _atom_site_hle17_ddec_spin_density
 _atom_site_hle17_ddec_sum_bond_order
 _atom_site_hle17_magmom
 _atom_site_hse06_10hf_ddec_charge
 _atom_site_hse06_10hf_ddec_spin_density
 _atom_site_hse06_10hf_ddec_sum_bond_order
 _atom_site_hse06_10hf_magmom
 _atom_site_hse06_ddec_charge
 _atom_site_hse06_ddec_spin_density
 _atom_site_hse06_ddec_sum_bond_order
 _atom_site_hse06_magmom
 _atom_site_pbe_cm5_charge
 _atom_site_pbe_ddec_charge
 _atom_site_pbe_ddec_spin_density
 _atom_site_pbe_ddec_sum_bond_order
 _atom_site_pbe_magmom
Ni  Ni0  1  0.00000224  0.99999700  0.00000229  1  0.669974  0.026687  2.401389  0.024  0.671218  0.011251  2.814546  0.011  0.75357  0.007575  2.745545  0.008  0.698046  0.615599  0.013926  2.863266  0.013
H  H1  1  0.50217346  0.87537734  0.93331645  1  0.131884  0.000126  0.96102  0.0  0.133372  3.4e-05  1.031571  0.0  0.136092  1.6e-05  1.028483  0.0  0.149191  0.131459  2.4e-05  1.033603  0.0
H  H2  1  0.49783035  0.12461179  0.06668768  1  0.131901  0.000139  0.961069  0.0  0.133435  3.4e-05  1.031574  0.0  0.136155  1.7e-05  1.028488  0.0  0.149191  0.131521  2.4e-05  1.033606  0.0
H  H3  1  0.95802067  0.33741484  0.72702592  1  0.120537  -0.000148  0.946903  0.0  0.128489  -6.6e-05  1.01285  0.0  0.130851  -3.1e-05  1.01008  0.0  0.147149  0.126724  -0.00011  1.01469  0.0
H  H4  1  0.04197576  0.66257916  0.27297715  1  0.120595  -0.000156  0.947102  0.0  0.128595  -6.6e-05  1.012971  0.0  0.130919  -3.1e-05  1.010256  0.0  0.147198  0.126831  -0.00011  1.01481  0.0
H  H5  1  0.71697427  0.97185999  0.59088645  1  0.084298  -0.000101  0.94825  0.0  0.088057  -0.000123  1.031228  0.0  0.089512  -8.4e-05  1.029768  0.0  0.110993  0.088045  -0.000171  1.029805  0.0
H  H6  1  0.28301894  0.02814121  0.40911631  1  0.084308  -0.000105  0.948206  0.0  0.088076  -0.000123  1.031163  0.0  0.089531  -8.3e-05  1.029702  0.0  0.111017  0.088062  -0.00017  1.029741  0.0
H  H7  1  0.79141588  0.85449078  0.75859375  1  0.086318  3.7e-05  0.967927  0.0  0.089053  1.1e-05  1.053442  0.0  0.090352  1.3e-05  1.05249  0.0  0.112475  0.087894  5e-06  1.054347  0.0
H  H8  1  0.20858412  0.14550796  0.24140657  1  0.086328  2.7e-05  0.967944  0.0  0.089051  1.1e-05  1.053452  0.0  0.09035  1.3e-05  1.052505  0.0  0.112487  0.087894  5e-06  1.054353  0.0
H  H9  1  0.60675861  0.73958609  0.57271500  1  0.075306  0.0  0.957939  0.0  0.086513  -1.6e-05  1.033637  0.0  0.088016  -6e-06  1.033142  0.0  0.086613  0.085359  -2.1e-05  1.033991  0.0
H  H10  1  0.39323938  0.26042106  0.42727811  1  0.075287  3e-06  0.957862  0.0  0.086504  -1.6e-05  1.033567  0.0  0.088005  -6e-06  1.033075  0.0  0.086606  0.08535  -2.1e-05  1.033922  0.0
H  H11  1  0.68067393  0.61774977  0.73805772  1  0.072814  6e-06  0.929689  0.0  0.087356  1.4e-05  0.993478  0.0  0.088365  5e-06  0.993793  0.0  0.089329  0.087333  1.2e-05  0.991615  0.0
H  H12  1  0.31932232  0.38225144  0.26193657  1  0.072837  1e-06  0.929776  0.0  0.087408  1.4e-05  0.993552  0.0  0.088419  5e-06  0.993862  0.0  0.089355  0.087384  1.2e-05  0.991688  0.0
H  H13  1  0.94991107  0.58539483  0.55262631  1  0.064878  -3e-06  0.949106  0.0  0.08158  -4e-06  1.015351  0.0  0.082415  -4e-06  1.015351  0.0  0.088837  0.080895  -3e-05  1.015468  0.0
H  H14  1  0.05008725  0.41461110  0.44737084  1  0.06496  -3e-06  0.949128  0.0  0.08165  -4e-06  1.015314  0.0  0.082479  -5e-06  1.015313  0.0  0.088872  0.080958  -3e-05  1.015431  0.0
H  H15  1  0.98425139  0.78196283  0.50924272  1  0.088908  1.7e-05  0.941867  0.0  0.102746  1.8e-05  1.007465  0.0  0.103625  1.4e-05  1.008034  0.0  0.098644  0.10193  5e-06  1.007306  0.0
H  H16  1  0.01574862  0.21803591  0.49075851  1  0.088957  1.4e-05  0.941871  0.0  0.102739  1.8e-05  1.007477  0.0  0.103618  1.4e-05  1.008047  0.0  0.098643  0.101923  5e-06  1.007318  0.0
H  H17  1  0.11931952  0.70921418  0.73798967  1  0.089702  0.000183  0.936615  0.0  0.101385  0.000176  1.003505  0.0  0.101942  0.000126  1.003641  0.0  0.117324  0.10077  0.000185  1.003829  0.0
H  H18  1  0.88067990  0.29078696  0.26200806  1  0.089768  0.000184  0.936765  0.0  0.101462  0.000176  1.00363  0.0  0.102002  0.000126  1.003778  0.0  0.117347  0.100848  0.000185  1.003954  0.0
H  H19  1  0.27724624  0.60639878  0.64080058  1  0.079702  -9e-06  0.954941  0.0  0.089588  -0.0  1.032241  0.0  0.090273  1e-05  1.031964  0.0  0.102238  0.089111  -4.6e-05  1.032257  0.0
H  H20  1  0.72275119  0.39359761  0.35920072  1  0.07968  -8e-06  0.954917  0.0  0.089556  -0.0  1.032238  0.0  0.090241  1e-05  1.031949  0.0  0.102202  0.089078  -4.6e-05  1.032257  0.0
C  C21  1  0.40205378  0.90814856  0.85028781  1  0.163821  0.001911  3.602945  0.001  0.08893  -0.000152  3.868412  -0.001  0.102202  0.000665  3.880826  0.0  0.182651  0.080243  -0.000808  3.860402  -0.001
C  C22  1  0.59794654  0.09184896  0.14971655  1  0.16367  0.001848  3.603214  0.001  0.088712  -0.000152  3.868706  -0.001  0.101981  0.000663  3.881123  0.0  0.182567  0.080028  -0.000808  3.860697  -0.001
C  C23  1  0.03505395  0.34375004  0.80715864  1  0.15309  -0.00374  3.6162  -0.002  0.079753  0.000153  3.878653  0.001  0.092612  -0.000941  3.892409  0.0  0.179629  0.071118  0.000859  3.869583  0.002
C  C24  1  0.96494597  0.65624267  0.19285193  1  0.153026  -0.003699  3.616431  -0.002  0.079643  0.000153  3.878904  0.001  0.092531  -0.000937  3.89268  0.0  0.179549  0.071012  0.000861  3.869832  0.002
C  C25  1  0.68837143  0.86858303  0.68044933  1  -0.024169  -0.000548  3.620321  0.0  -0.09896  -0.000465  3.877558  0.0  -0.096104  -0.000352  3.88934  0.0  -0.053537  -0.100416  -0.000587  3.86842  0.0
C  C26  1  0.31162335  0.13141814  0.31955331  1  -0.024129  -0.000523  3.620235  0.0  -0.098941  -0.000466  3.877615  0.0  -0.096094  -0.000352  3.889408  0.0  -0.053548  -0.1004  -0.000587  3.868478  0.0
C  C27  1  0.71947210  0.71849447  0.64863489  1  -0.130835  -3.5e-05  3.684311  0.0  -0.173181  -6.1e-05  3.951411  0.0  -0.175432  -4.1e-05  3.966045  0.0  -0.168458  -0.171626  -6.9e-05  3.94062  0.0
C  C28  1  0.28053039  0.28150667  0.35135713  1  -0.13083  -4e-05  3.6844  0.0  -0.173293  -6e-05  3.951548  0.0  -0.175537  -4.1e-05  3.966174  0.0  -0.168513  -0.171738  -6.9e-05  3.940759  0.0
C  C29  1  0.94459502  0.67709976  0.59403924  1  -0.125248  -0.00019  3.682633  0.0  -0.161831  -7.7e-05  3.938115  0.0  -0.163878  -6e-05  3.953276  0.0  -0.16125  -0.160235  -9.2e-05  3.928067  0.0
C  C30  1  0.05541040  0.32290250  0.40595860  1  -0.125421  -0.000185  3.682626  0.0  -0.161857  -7.7e-05  3.937994  0.0  -0.163891  -5.7e-05  3.953126  0.0  -0.161245  -0.160253  -9.2e-05  3.927937  0.0
C  C31  1  0.12172715  0.62272072  0.69217214  1  -0.016988  0.000725  3.61225  0.001  -0.092496  0.00065  3.867596  0.001  -0.089046  0.000506  3.878727  0.0  -0.051123  -0.094856  0.000774  3.86048  0.001
C  C32  1  0.87826949  0.37727212  0.30782489  1  -0.016959  0.000722  3.611991  0.001  -0.09252  0.000648  3.867364  0.001  -0.089018  0.000506  3.87845  0.0  -0.051112  -0.094881  0.000774  3.860251  0.001
C  C33  1  0.66595690  0.18734956  0.77973222  1  0.26636  -0.002126  4.043722  -0.003  0.259798  -0.004178  4.363989  -0.005  0.285685  -0.003372  4.37659  -0.004  0.129308  0.242038  -0.004643  4.354195  -0.005
C  C34  1  0.33404566  0.81265154  0.22026621  1  0.266459  -0.002184  4.043778  -0.003  0.2599  -0.004175  4.364019  -0.005  0.285789  -0.003374  4.376604  -0.004  0.129371  0.242141  -0.004641  4.354229  -0.005
S  S35  1  0.56302090  0.31598765  0.64075090  1  -0.344757  -0.010633  1.9859  -0.008  -0.344788  -0.003776  2.292214  -0.003  -0.359701  -0.002324  2.287539  -0.002  -0.181406  -0.333971  -0.005009  2.292406  -0.004
S  S36  1  0.43697909  0.68401109  0.35924851  1  -0.344801  -0.010623  1.985824  -0.008  -0.34485  -0.003775  2.292157  -0.003  -0.359749  -0.002323  2.287468  -0.002  -0.181414  -0.334036  -0.005008  2.29235  -0.004
N  N37  1  0.19242109  0.95764682  0.84706557  1  -0.222032  -0.054006  3.223607  -0.053  -0.197907  -0.043527  3.551308  -0.043  -0.224681  -0.036481  3.570018  -0.037  -0.217663  -0.180297  -0.049537  3.53938  -0.048
N  N38  1  0.80758424  0.04234942  0.15294159  1  -0.22203  -0.053968  3.223579  -0.053  -0.197872  -0.043522  3.551259  -0.043  -0.224645  -0.036481  3.569968  -0.037  -0.217602  -0.180268  -0.049535  3.539334  -0.048
N  N39  1  0.13494259  0.98903883  0.72199869  1  -0.051936  0.00043  2.914491  0.0  -0.044618  -0.000705  3.220302  -0.001  -0.041548  -0.000183  3.232139  0.0  -0.067397  -0.046829  -0.001071  3.212703  -0.001
N  N40  1  0.86505690  0.01096228  0.27800546  1  -0.051889  0.000401  2.914515  0.0  -0.044563  -0.000706  3.220315  -0.001  -0.041491  -0.000182  3.232148  0.0  -0.06742  -0.046773  -0.001071  3.212717  -0.001
N  N41  1  0.30272352  0.95982464  0.65031704  1  -0.094835  -0.003266  2.863749  -0.003  -0.097656  -0.002731  3.134067  -0.003  -0.09708  -0.001812  3.143729  -0.002  -0.060826  -0.097956  -0.003743  3.127475  -0.004
N  N42  1  0.69727281  0.04017652  0.34968458  1  -0.094796  -0.003224  2.863691  -0.003  -0.097619  -0.002731  3.13402  -0.003  -0.097048  -0.001809  3.14368  -0.002  -0.060756  -0.097919  -0.003744  3.127428  -0.004
N  N43  1  0.47143240  0.90912163  0.72940893  1  0.039005  -0.001376  3.537428  -0.001  0.162027  -0.000807  3.718933  -0.001  0.151795  -0.00071  3.739823  -0.001  -0.113405  0.167938  -0.000945  3.705759  -0.001
N  N44  1  0.52856758  0.09087712  0.27058956  1  0.039054  -0.00138  3.53752  -0.001  0.162069  -0.000808  3.719037  -0.001  0.151852  -0.00071  3.739911  -0.001  -0.113411  0.16798  -0.000944  3.705861  -0.001
N  N45  1  0.10837729  0.47042669  0.80292680  1  0.034088  0.001792  3.545887  0.002  0.157013  0.001325  3.730999  0.001  0.147409  0.001162  3.750926  0.001  -0.115736  0.162718  0.001427  3.718689  0.001
N  N46  1  0.89162621  0.52958394  0.19707115  1  0.033984  0.001799  3.546051  0.002  0.156873  0.001323  3.731185  0.001  0.147184  0.001167  3.751243  0.001  -0.115853  0.162578  0.001426  3.718877  0.001
N  N47  1  0.19195552  0.43394004  0.92168941  1  -0.097615  0.004612  2.83291  0.005  -0.123777  0.003452  3.114014  0.003  -0.12178  0.002316  3.122265  0.002  -0.076447  -0.124682  0.004803  3.108804  0.005
N  N48  1  0.80804323  0.56605750  0.07831414  1  -0.097593  0.004576  2.832578  0.005  -0.123693  0.003457  3.113657  0.003  -0.121679  0.002309  3.121911  0.002  -0.076408  -0.124596  0.004805  3.10845  0.005
N  N49  1  0.16727090  0.28891289  0.99612690  1  -0.045755  -0.001389  2.942768  -0.001  -0.036564  0.000539  3.257982  0.0  -0.034376  -0.000199  3.269238  -0.001  -0.063268  -0.03798  0.001184  3.250584  0.001
N  N50  1  0.83273372  0.71109294  0.00387348  1  -0.045833  -0.001357  2.942574  -0.001  -0.036683  0.000543  3.25781  0.0  -0.034487  -0.000212  3.269057  -0.001  -0.063303  -0.038103  0.001184  3.250415  0.001
N  N51  1  0.06989826  0.22990709  0.92766971  1  -0.213768  0.073208  3.215967  0.075  -0.189993  0.058976  3.539202  0.06  -0.216349  0.049664  3.558643  0.051  -0.211714  -0.172091  0.066068  3.526402  0.067
N  N52  1  0.93010977  0.77009750  0.07233083  1  -0.213633  0.073191  3.215771  0.075  -0.189823  0.058976  3.539006  0.06  -0.216177  0.049679  3.558423  0.051  -0.211604  -0.171923  0.066072  3.52621  0.067
N  N53  1  0.74233895  0.09262824  0.88149335  1  -0.517778  -0.018836  2.987328  -0.017  -0.509477  -0.01429  3.296334  -0.013  -0.537938  -0.011691  3.300412  -0.01  -0.401172  -0.490411  -0.015432  3.294016  -0.013
N  N54  1  0.25766632  0.90736804  0.11850831  1  -0.517867  -0.018777  2.987532  -0.017  -0.509586  -0.014294  3.296583  -0.013  -0.538044  -0.01169  3.300654  -0.01  -0.401243  -0.490523  -0.015434  3.294269  -0.013
