# generated using pymatgen
data_CoH16C24(NO)6
_symmetry_space_group_name_H-M   'P 1'
_cell_length_a   6.06928930
_cell_length_b   10.59447722
_cell_length_c   17.46520000
_cell_angle_alpha   90.00000000
_cell_angle_beta   90.00000000
_cell_angle_gamma   95.75247447
_symmetry_Int_Tables_number   1
_chemical_formula_structural   CoH16C24(NO)6
_chemical_formula_sum   'Co2 H32 C48 N12 O12'
_cell_volume   1117.37354440
_cell_formula_units_Z   2
loop_
 _symmetry_equiv_pos_site_id
 _symmetry_equiv_pos_as_xyz
  1  'x, y, z'
loop_
 _atom_site_type_symbol
 _atom_site_label
 _atom_site_symmetry_multiplicity
 _atom_site_fract_x
 _atom_site_fract_y
 _atom_site_fract_z
 _atom_site_occupancy
 _atom_site_hle17_ddec_charge
 _atom_site_hle17_ddec_spin_density
 _atom_site_hle17_ddec_sum_bond_order
 _atom_site_hle17_magmom
 _atom_site_hse06_10hf_ddec_charge
 _atom_site_hse06_10hf_ddec_spin_density
 _atom_site_hse06_10hf_ddec_sum_bond_order
 _atom_site_hse06_10hf_magmom
 _atom_site_hse06_ddec_charge
 _atom_site_hse06_ddec_spin_density
 _atom_site_hse06_ddec_sum_bond_order
 _atom_site_hse06_magmom
 _atom_site_pbe_bader_charge
 _atom_site_pbe_bader_spin_density
 _atom_site_pbe_cm5_charge
 _atom_site_pbe_ddec_charge
 _atom_site_pbe_ddec_spin_density
 _atom_site_pbe_ddec_sum_bond_order
 _atom_site_pbe_magmom
Co  Co0  1  0.00000288  0.50000923  0.99999714  1  0.604523  -1.214847  2.715972  -1.058  0.58352  -1.04709  3.157811  -0.957  0.635983  -1.03446  3.097613  -0.954  1.119274  -0.954742  0.67299  0.556886  -1.045523  3.190981  -0.946
Co  Co1  1  0.50000464  0.99999759  0.49999885  1  0.604397  -1.214775  2.715992  -1.057  0.583645  -1.047074  3.157756  -0.957  0.636128  -1.034446  3.097507  -0.954  1.119338  -0.954733  0.673045  0.55705  -1.045511  3.190914  -0.946
H  H2  1  0.56770145  0.35235517  0.97777924  1  0.09983  -0.000112  0.956837  -0.001  0.104741  0.000176  1.024158  0.0  0.107904  0.000154  1.021345  0.0  0.146071  -0.000131  0.122507  0.102257  0.000177  1.02658  0.0
H  H3  1  0.93229486  0.14765786  0.47777294  1  0.099772  -0.000112  0.956897  -0.001  0.10471  0.000176  1.024198  0.0  0.107872  0.000154  1.021388  0.0  0.146183  -0.000131  0.122501  0.10228  0.000177  1.026563  0.0
H  H4  1  0.43228895  0.64766898  0.02222820  1  0.09974  -0.000111  0.956988  -0.001  0.104673  0.000176  1.024281  0.0  0.107834  0.000154  1.021465  0.0  0.146242  -0.000131  0.122479  0.102253  0.000177  1.026634  0.0
H  H5  1  0.06771972  0.85233498  0.52222591  1  0.099828  -0.000112  0.956929  -0.001  0.104727  0.000176  1.024211  0.0  0.107892  0.000154  1.021398  0.0  0.146216  -0.000131  0.122495  0.102249  0.000177  1.026627  0.0
H  H6  1  0.49636150  0.27246711  0.42431006  1  0.075359  -0.000315  0.958241  -0.001  0.083763  -0.000433  1.020781  -0.001  0.08504  -0.00029  1.020903  -0.001  0.081175  -0.001876  0.113671  0.082852  -0.000594  1.021023  -0.001
H  H7  1  0.00363632  0.22753642  0.92431177  1  0.075329  -0.000315  0.958246  -0.001  0.083751  -0.000433  1.020755  -0.001  0.085026  -0.00029  1.02088  -0.001  0.0813  -0.001879  0.113681  0.08284  -0.000596  1.021  -0.001
H  H8  1  0.50364137  0.72752478  0.57569223  1  0.075328  -0.000315  0.958144  -0.001  0.083764  -0.000433  1.020674  -0.001  0.08504  -0.00029  1.020796  -0.001  0.081659  -0.001878  0.11364  0.082852  -0.000595  1.020919  -0.001
H  H9  1  0.99635258  0.77247919  0.07569166  1  0.075365  -0.000315  0.958142  -0.001  0.083824  -0.000433  1.020636  -0.001  0.085103  -0.00029  1.020753  -0.001  0.081657  -0.001876  0.113658  0.082912  -0.000594  1.02088  -0.001
H  H10  1  0.20377704  0.12178396  0.62378387  1  0.08883  -0.000347  0.965334  -0.001  0.09392  -0.000474  1.034475  -0.001  0.096328  -0.000326  1.032553  -0.001  0.11545  -0.002025  0.117854  0.092084  -0.00063  1.036423  -0.001
H  H11  1  0.29624170  0.37821673  0.12378100  1  0.088846  -0.000347  0.965377  -0.001  0.094004  -0.000474  1.034458  -0.001  0.096423  -0.000326  1.03253  -0.001  0.115517  -0.002023  0.117808  0.092162  -0.000629  1.036416  -0.001
H  H12  1  0.79621693  0.87820414  0.37622186  1  0.088819  -0.000347  0.96535  -0.001  0.093936  -0.000474  1.0345  -0.001  0.096353  -0.000326  1.032567  -0.001  0.115682  -0.002023  0.11781  0.092094  -0.000629  1.036452  -0.001
H  H13  1  0.70380553  0.62180267  0.87621671  1  0.088858  -0.000347  0.96528  -0.001  0.093917  -0.000474  1.034476  -0.001  0.096332  -0.000326  1.032547  -0.001  0.115726  -0.002025  0.117882  0.092077  -0.00063  1.03643  -0.001
H  H14  1  0.33039242  0.47465805  0.44326947  1  0.108208  -0.000208  0.94886  0.0  0.119584  -0.000345  1.001908  0.0  0.122158  -0.000245  1.001811  0.0  0.093596  -0.001158  0.108976  0.117741  -0.000467  1.002233  -0.001
H  H15  1  0.16958745  0.02534644  0.94327176  1  0.108167  -0.000208  0.949096  0.0  0.119593  -0.000345  1.002044  0.0  0.122178  -0.000245  1.001938  0.0  0.093623  -0.001159  0.10898  0.117751  -0.000467  1.002368  -0.001
H  H16  1  0.66960124  0.52533764  0.55672824  1  0.10814  -0.000208  0.948997  0.0  0.119504  -0.000345  1.002039  0.0  0.122081  -0.000245  1.001932  0.0  0.093679  -0.001159  0.10894  0.117663  -0.000467  1.002359  -0.001
H  H17  1  0.83037525  0.97466063  0.05672824  1  0.108197  -0.000208  0.94902  0.0  0.119575  -0.000345  1.00205  0.0  0.122149  -0.000245  1.001959  0.0  0.09368  -0.001158  0.108964  0.11773  -0.000467  1.002377  -0.001
H  H18  1  0.10675653  0.50498972  0.56212640  1  0.120529  -1.7e-05  0.974524  0.0  0.128716  0.000117  1.035495  0.0  0.132156  9.5e-05  1.033516  0.0  0.147772  0.000139  0.110777  0.126215  0.000181  1.037196  0.0
H  H19  1  0.39322592  0.99499622  0.06212411  1  0.120539  -1.8e-05  0.974691  0.0  0.128726  0.000117  1.035641  0.0  0.132167  9.4e-05  1.033661  0.0  0.147646  0.000139  0.110825  0.126225  0.000182  1.037343  0.0
H  H20  1  0.89322409  0.49498794  0.43787245  1  0.120573  -1.7e-05  0.974707  0.0  0.128758  0.000117  1.03567  0.0  0.132199  9.5e-05  1.033692  0.0  0.147568  0.000139  0.110831  0.126259  0.000182  1.037366  0.0
H  H21  1  0.60675292  0.00500895  0.93787417  1  0.12064  -1.7e-05  0.974637  0.0  0.128738  0.000117  1.035694  0.0  0.132179  9.5e-05  1.033714  0.0  0.147541  0.000138  0.110804  0.12624  0.000181  1.037387  0.0
H  H22  1  0.55644404  0.28021581  0.73425154  1  0.10746  -0.000253  0.922974  -0.001  0.119201  0.000214  0.979075  0.0  0.122826  0.000115  0.975672  0.0  0.070267  0.000225  0.113308  0.116357  0.000302  0.981953  0.0
H  H23  1  0.94354697  0.21978583  0.23424352  1  0.10742  -0.000253  0.922861  -0.001  0.119229  0.000213  0.978899  0.0  0.122857  0.000115  0.975486  0.0  0.070106  0.000228  0.11328  0.116353  0.000304  0.981812  0.0
H  H24  1  0.44354763  0.71977798  0.26575533  1  0.107401  -0.000253  0.922912  -0.001  0.119195  0.000214  0.978968  0.0  0.122826  0.000115  0.97556  0.0  0.070195  0.000228  0.113311  0.116345  0.000304  0.981854  0.0
H  H25  1  0.05645741  0.78022409  0.76575304  1  0.107376  -0.000253  0.92293  -0.001  0.119135  0.000214  0.97903  0.0  0.122763  0.000115  0.975621  0.0  0.070243  0.000225  0.11328  0.116269  0.000302  0.981934  0.0
H  H26  1  0.37514069  0.24995623  0.86191169  1  0.107824  0.000613  0.961905  0.001  0.116976  1.8e-05  1.021767  0.0  0.120055  3.8e-05  1.020608  0.0  0.10475  5.4e-05  0.111261  0.114862  3.2e-05  1.022743  0.0
H  H27  1  0.12484314  0.25005205  0.36190424  1  0.107778  0.000612  0.962102  0.001  0.116969  1.8e-05  1.021922  0.0  0.120041  3.8e-05  1.020757  0.0  0.104741  5.6e-05  0.11127  0.114852  3.4e-05  1.022902  0.0
H  H28  1  0.62482876  0.75005179  0.13809747  1  0.107759  0.000612  0.962044  0.001  0.116994  1.8e-05  1.021828  0.0  0.120074  3.7e-05  1.020666  0.0  0.104908  5.6e-05  0.111298  0.114879  3.4e-05  1.022807  0.0
H  H29  1  0.87517409  0.74994649  0.63809461  1  0.107784  0.000612  0.962047  0.001  0.117013  1.8e-05  1.02185  0.0  0.120083  3.8e-05  1.020686  0.0  0.104763  5.4e-05  0.111303  0.114898  3.3e-05  1.022825  0.0
H  H30  1  0.97904680  0.23028471  0.69541431  1  0.311165  -6e-06  0.884923  0.0  0.29231  -2e-06  0.951085  0.0  0.300562  -8e-06  0.944415  0.0  0.532935  -1.8e-05  0.312333  0.286438  4e-06  0.955781  0.0
H  H31  1  0.52094981  0.26971124  0.19541374  1  0.310941  -6e-06  0.885209  0.0  0.292187  -2e-06  0.951241  0.0  0.300439  -8e-06  0.944575  0.0  0.533011  -1.7e-05  0.312242  0.286319  5e-06  0.95594  0.0
H  H32  1  0.02093861  0.76970149  0.30458684  1  0.311099  -6e-06  0.885111  0.0  0.292266  -2e-06  0.951197  0.0  0.300517  -8e-06  0.944528  0.0  0.533096  -1.7e-05  0.312297  0.2864  5e-06  0.955894  0.0
H  H33  1  0.47906413  0.73029678  0.80458455  1  0.31104  -6e-06  0.885171  0.0  0.292223  -2e-06  0.951256  0.0  0.300474  -8e-06  0.944588  0.0  0.533059  -1.8e-05  0.312278  0.286359  4e-06  0.955948  0.0
C  C34  1  0.94223253  0.44582716  0.84679305  1  0.051287  0.032459  3.680465  0.021  0.046271  0.011088  3.926423  0.007  0.052877  0.008645  3.939201  0.005  0.426721  0.011296  0.106443  0.041537  0.011769  3.918812  0.007
C  C35  1  0.55778419  0.05417069  0.34679534  1  0.051094  0.032441  3.68076  0.021  0.046271  0.011084  3.926609  0.007  0.052884  0.008642  3.939398  0.005  0.426822  0.011296  0.106427  0.041536  0.011767  3.918995  0.007
C  C36  1  0.05777727  0.55416663  0.15320752  1  0.051062  0.032452  3.680907  0.021  0.046151  0.011086  3.926774  0.007  0.052753  0.008643  3.939554  0.005  0.426872  0.011296  0.106438  0.04142  0.011768  3.91916  0.007
C  C37  1  0.44222414  0.94583354  0.65320638  1  0.05116  0.032445  3.680841  0.021  0.046269  0.011087  3.926739  0.007  0.052875  0.008645  3.939518  0.005  0.427151  0.011293  0.106435  0.041534  0.011765  3.919128  0.007
C  C38  1  0.16575003  0.52241955  0.85300369  1  0.582711  0.008182  3.9246  0.004  0.538794  0.003785  4.237091  0.002  0.574187  0.001924  4.230351  0.001  1.583522  0.004417  0.19612  0.514091  0.005366  4.241275  0.003
C  C39  1  0.33425995  0.97758252  0.35300941  1  0.582409  0.008183  3.924859  0.004  0.538397  0.003787  4.237459  0.002  0.573787  0.001925  4.230727  0.001  1.582872  0.004419  0.195876  0.513693  0.00537  4.241636  0.003
C  C40  1  0.83425978  0.47758373  0.14698887  1  0.582628  0.008181  3.924852  0.004  0.538655  0.003785  4.237374  0.002  0.574051  0.001924  4.230639  0.001  1.582782  0.004418  0.19594  0.513952  0.005368  4.241555  0.003
C  C41  1  0.66574969  0.02241981  0.64699288  1  0.582661  0.00818  3.924547  0.004  0.538662  0.003785  4.237121  0.002  0.574053  0.001923  4.23039  0.001  1.58285  0.004417  0.196036  0.513958  0.005366  4.241302  0.003
C  C42  1  0.84091105  0.39515420  0.78005749  1  -0.082368  -0.009333  3.730632  -0.014  -0.068728  -0.001322  3.968532  -0.003  -0.075716  -0.001627  3.985537  -0.003  -0.022555  -0.002497  0.004131  -0.064834  -0.000877  3.957972  -0.002
C  C43  1  0.65908869  0.10484080  0.28005749  1  -0.08219  -0.00933  3.730537  -0.014  -0.068637  -0.001322  3.968402  -0.003  -0.075626  -0.001626  3.985418  -0.003  -0.02264  -0.002493  0.004205  -0.064735  -0.000875  3.957822  -0.002
C  C44  1  0.15907634  0.60483390  0.21994309  1  -0.082319  -0.009336  3.7308  -0.014  -0.068692  -0.001323  3.968691  -0.003  -0.075677  -0.001628  3.985709  -0.003  -0.022778  -0.002494  0.004165  -0.064798  -0.000875  3.958129  -0.002
C  C45  1  0.34092903  0.89516058  0.71994309  1  -0.082518  -0.009334  3.73069  -0.014  -0.068878  -0.001323  3.968571  -0.003  -0.075861  -0.001627  3.985593  -0.003  -0.022578  -0.002498  0.004149  -0.064977  -0.000878  3.957999  -0.002
C  C46  1  0.23480113  0.20223837  0.58509608  1  0.017311  0.012988  3.667135  0.009  -0.016718  0.003517  3.931168  0.002  -0.012676  0.003847  3.945776  0.003  0.54958  0.003204  0.041213  -0.020254  0.003723  3.922594  0.002
C  C47  1  0.26520805  0.29775473  0.08509608  1  0.017126  0.012977  3.667578  0.009  -0.016923  0.003513  3.931566  0.002  -0.012895  0.003844  3.94619  0.003  0.549587  0.003203  0.041297  -0.020453  0.003722  3.922975  0.002
C  C48  1  0.76519498  0.79774309  0.41490392  1  0.017145  0.012983  3.667429  0.009  -0.016874  0.003515  3.931436  0.002  -0.012858  0.003845  3.946034  0.003  0.549633  0.003206  0.041198  -0.020387  0.003724  3.922859  0.002
C  C49  1  0.73482814  0.70225803  0.91490163  1  0.017152  0.012989  3.666958  0.009  -0.016842  0.003517  3.930981  0.002  -0.012827  0.003848  3.945569  0.003  0.549927  0.003206  0.041102  -0.020364  0.003724  3.922419  0.002
C  C50  1  0.93949650  0.42093228  0.70222900  1  0.570679  0.000186  3.827185  0.0  0.52568  -0.000146  4.114674  0.0  0.554786  -8.6e-05  4.113365  0.0  1.444981  -0.000288  0.253241  0.505991  -0.000197  4.114926  0.0
C  C51  1  0.56047885  0.07905513  0.20222786  1  0.570515  0.000186  3.827437  0.0  0.525612  -0.000146  4.114823  0.0  0.554711  -8.5e-05  4.113525  0.0  1.445049  -0.000285  0.253164  0.505922  -0.000195  4.115076  0.0
C  C52  1  0.06047391  0.57905297  0.29776527  1  0.570598  0.000186  3.827082  0.0  0.525557  -0.000146  4.114591  0.0  0.554645  -8.5e-05  4.113313  0.0  1.445008  -0.000285  0.253164  0.505869  -0.000195  4.114845  0.0
C  C53  1  0.43951745  0.92094625  0.79777271  1  0.570704  0.000185  3.827049  0.0  0.525677  -0.000146  4.114611  0.0  0.554749  -8.5e-05  4.113358  0.0  1.445088  -0.000287  0.253166  0.505989  -0.000197  4.114863  0.0
C  C54  1  0.63924143  0.36030024  0.92068914  1  0.12893  0.028701  3.612129  0.019  0.09372  0.009653  3.874713  0.006  0.105914  0.008078  3.884184  0.005  0.477694  0.00935  0.05255  0.08568  0.009784  3.869133  0.006
C  C55  1  0.86075554  0.13971658  0.42068456  1  0.129006  0.028694  3.612079  0.019  0.093841  0.009651  3.874747  0.006  0.106042  0.008075  3.884226  0.005  0.477709  0.009349  0.052572  0.085758  0.009783  3.869142  0.006
C  C56  1  0.36074385  0.63971348  0.07931544  1  0.129024  0.028711  3.612067  0.019  0.093867  0.009659  3.87467  0.006  0.106067  0.008081  3.884129  0.005  0.477568  0.009356  0.052665  0.085775  0.009789  3.869065  0.006
C  C57  1  0.13926037  0.86028385  0.57931372  1  0.128839  0.02871  3.612159  0.019  0.093788  0.009658  3.874708  0.006  0.105981  0.008078  3.884173  0.005  0.477295  0.009354  0.052636  0.085741  0.009788  3.86913  0.006
C  C58  1  0.14111288  0.31491324  0.60201028  1  0.222917  -0.005265  3.79229  -0.007  0.222564  -0.00187  4.034524  -0.003  0.227656  -0.001786  4.055928  -0.003  0.303194  -0.00397  0.107158  0.218949  -0.002107  4.020466  -0.003
C  C59  1  0.35888493  0.18508081  0.10200857  1  0.222946  -0.005263  3.792488  -0.007  0.222561  -0.001869  4.034787  -0.003  0.227655  -0.001785  4.056191  -0.003  0.303221  -0.003968  0.107115  0.218956  -0.002105  4.020718  -0.003
C  C60  1  0.85887845  0.68506916  0.39798972  1  0.223183  -0.005263  3.792511  -0.007  0.222696  -0.00187  4.034856  -0.003  0.227848  -0.001785  4.056176  -0.003  0.303295  -0.003968  0.107212  0.219041  -0.002105  4.020855  -0.003
C  C61  1  0.64112803  0.81493101  0.89798914  1  0.223282  -0.005265  3.792335  -0.007  0.222802  -0.00187  4.034714  -0.003  0.227973  -0.001786  4.056009  -0.003  0.303134  -0.003971  0.107233  0.219146  -0.002107  4.020715  -0.003
C  C62  1  0.17664528  0.41659593  0.55066246  1  -0.124729  0.013612  3.68577  0.009  -0.147573  0.004116  3.928226  0.002  -0.148684  0.003813  3.94648  0.002  0.019842  0.00515  -0.078953  -0.147273  0.005399  3.916452  0.003
C  C63  1  0.32334478  0.08339148  0.05066017  1  -0.124543  0.013611  3.68567  0.009  -0.147364  0.004115  3.928096  0.002  -0.148475  0.003813  3.946353  0.002  0.02032  0.005149  -0.078921  -0.14706  0.005398  3.916307  0.003
C  C64  1  0.82335100  0.58338647  0.44933811  1  -0.124747  0.013609  3.685934  0.009  -0.147571  0.004115  3.928404  0.002  -0.148704  0.003813  3.946643  0.002  0.01997  0.005151  -0.078999  -0.147253  0.0054  3.91663  0.003
C  C65  1  0.67663850  0.91661085  0.94933926  1  -0.124871  0.013612  3.686024  0.009  -0.147611  0.004117  3.928506  0.002  -0.148747  0.003815  3.946739  0.002  0.019511  0.005151  -0.078954  -0.147293  0.0054  3.916731  0.003
C  C66  1  0.53394671  0.30606314  0.85639099  1  -0.0675  -0.008951  3.700379  -0.013  -0.085036  -0.000943  3.960412  -0.002  -0.08892  -0.001664  3.973685  -0.003  -0.041488  -0.001119  -0.069477  -0.083116  -7e-05  3.952169  -0.001
C  C67  1  0.96604218  0.19394514  0.35638298  1  -0.067458  -0.008947  3.700414  -0.013  -0.085084  -0.000942  3.960566  -0.002  -0.088956  -0.001663  3.973838  -0.002  -0.041121  -0.001115  -0.069533  -0.083163  -6.8e-05  3.952317  -0.001
C  C68  1  0.46602570  0.69393349  0.14361702  1  -0.067471  -0.008949  3.700448  -0.013  -0.085138  -0.000943  3.960598  -0.002  -0.08903  -0.001664  3.973891  -0.002  -0.041367  -0.001117  -0.069596  -0.083218  -6.8e-05  3.952361  -0.001
C  C69  1  0.03397341  0.80606289  0.64361473  1  -0.067506  -0.008949  3.700558  -0.013  -0.085203  -0.000943  3.960691  -0.002  -0.08908  -0.001663  3.973971  -0.002  -0.040914  -0.00112  -0.069608  -0.083277  -7e-05  3.952435  -0.001
C  C70  1  0.39341493  0.28576171  0.47414859  1  0.082255  0.011837  3.720207  0.008  0.051685  0.002987  3.984631  0.002  0.055638  0.003578  4.003417  0.002  0.484593  0.00256  0.031853  0.04847  0.003079  3.972746  0.002
C  C71  1  0.10657251  0.21423898  0.97415260  1  0.082463  0.011835  3.720021  0.008  0.051929  0.002987  3.9844  0.002  0.055884  0.003579  4.003186  0.002  0.484563  0.00256  0.032012  0.048712  0.00308  3.972516  0.002
C  C72  1  0.60657229  0.71422544  0.52584912  1  0.082512  0.011836  3.720085  0.008  0.051912  0.002987  3.984472  0.002  0.055866  0.003578  4.003258  0.002  0.48417  0.00256  0.032032  0.048696  0.00308  3.972588  0.002
C  C73  1  0.89342711  0.78578137  0.02584912  1  0.082397  0.011837  3.720226  0.008  0.051734  0.002986  3.984633  0.002  0.055686  0.003578  4.003423  0.002  0.483604  0.002559  0.031959  0.04852  0.00308  3.972745  0.002
C  C74  1  0.63578288  0.32265910  0.78533598  1  -0.008746  0.035944  3.660972  0.023  -0.039715  0.012198  3.914776  0.007  -0.029926  0.008942  3.923257  0.005  0.052723  0.013022  -0.059709  -0.046283  0.013591  3.909759  0.008
C  C75  1  0.86421555  0.17733780  0.28532854  1  -0.008786  0.035928  3.660901  0.023  -0.039786  0.012195  3.914768  0.007  -0.029997  0.008939  3.923246  0.005  0.052362  0.013024  -0.059689  -0.046332  0.013593  3.909757  0.008
C  C76  1  0.36421802  0.67733090  0.21467032  1  -0.008623  0.035954  3.660776  0.023  -0.039643  0.012204  3.914698  0.007  -0.029854  0.008945  3.923178  0.005  0.052646  0.01303  -0.059678  -0.046205  0.0136  3.909685  0.008
C  C77  1  0.13578619  0.82266643  0.71466917  1  -0.008453  0.035945  3.660667  0.023  -0.039444  0.012202  3.914569  0.007  -0.029652  0.008942  3.923043  0.005  0.052463  0.013026  -0.059623  -0.046  0.013595  3.90956  0.008
C  C78  1  0.30309835  0.39967364  0.48570300  1  -0.097887  -0.005705  3.791422  -0.008  -0.108255  -0.001897  4.043486  -0.003  -0.112812  -0.001846  4.065535  -0.002  -0.075343  -0.003896  -0.082412  -0.105155  -0.002038  4.028983  -0.003
C  C79  1  0.19688232  0.10031661  0.98570529  1  -0.09815  -0.005704  3.791451  -0.008  -0.108545  -0.001897  4.043509  -0.003  -0.113114  -0.001846  4.065555  -0.002  -0.07601  -0.003899  -0.082522  -0.105442  -0.002039  4.02901  -0.003
C  C80  1  0.69687996  0.60030971  0.51429128  1  -0.097941  -0.005704  3.791544  -0.008  -0.108269  -0.001897  4.043608  -0.003  -0.112826  -0.001846  4.065652  -0.002  -0.076063  -0.003898  -0.082363  -0.105165  -0.002039  4.029102  -0.003
C  C81  1  0.80310970  0.89968856  0.01429185  1  -0.09798  -0.005704  3.79194  -0.008  -0.108332  -0.001897  4.043964  -0.003  -0.112896  -0.001846  4.066029  -0.002  -0.075135  -0.003897  -0.082417  -0.105229  -0.002038  4.029459  -0.003
N  N82  1  0.84006283  0.42688231  0.91588645  1  -0.260801  0.006997  3.445756  0.001  -0.215466  0.005823  3.728486  0.004  -0.235641  0.004468  3.741746  0.002  -1.170736  0.006826  -0.351539  -0.203855  0.005974  3.719531  0.004
N  N83  1  0.65994895  0.07312502  0.41588530  1  -0.260625  0.006994  3.445804  0.001  -0.215504  0.00582  3.728661  0.004  -0.23571  0.004466  3.741973  0.002  -1.170679  0.006823  -0.351554  -0.203902  0.005971  3.71973  0.004
N  N84  1  0.15993117  0.57312476  0.08411183  1  -0.260575  0.006991  3.445622  0.001  -0.215339  0.00582  3.7284  0.004  -0.235509  0.004465  3.741657  0.002  -1.170731  0.006825  -0.351539  -0.203732  0.005972  3.719466  0.004
N  N85  1  0.34007503  0.92687446  0.58411355  1  -0.260521  0.00699  3.445628  0.001  -0.215407  0.005818  3.728476  0.004  -0.235576  0.004464  3.741737  0.002  -1.170944  0.006822  -0.351594  -0.203804  0.00597  3.719533  0.004
N  N86  1  0.35833703  0.18747714  0.52299258  1  -0.254725  -0.037382  3.27286  -0.063  -0.2095  -0.030747  3.549559  -0.051  -0.225088  -0.025155  3.566692  -0.043  -1.209139  -0.067243  -0.306673  -0.198866  -0.036281  3.538068  -0.059
N  N87  1  0.14167957  0.31252071  0.02298972  1  -0.254668  -0.037376  3.27295  -0.063  -0.209507  -0.030746  3.549718  -0.051  -0.225097  -0.025153  3.566859  -0.043  -1.209129  -0.067242  -0.306801  -0.198868  -0.036281  3.538217  -0.059
N  N88  1  0.64167507  0.81251096  0.47701028  1  -0.254841  -0.037377  3.272981  -0.063  -0.209641  -0.030746  3.549735  -0.051  -0.22523  -0.025154  3.566874  -0.043  -1.208973  -0.067242  -0.306808  -0.199007  -0.03628  3.538237  -0.059
N  N89  1  0.85833816  0.68749016  0.97701028  1  -0.25486  -0.037381  3.272754  -0.063  -0.209543  -0.030747  3.549417  -0.051  -0.225135  -0.025155  3.566559  -0.043  -1.209115  -0.067244  -0.306753  -0.198905  -0.036281  3.537922  -0.059
N  N90  1  0.02082867  0.31713597  0.66995168  1  -0.44263  -0.000539  3.338186  0.0  -0.388691  -0.000376  3.570635  0.0  -0.411255  -0.000313  3.579534  0.0  -1.300668  -0.000934  -0.388586  -0.372886  -0.000423  3.564143  -0.001
N  N91  1  0.47916931  0.18285903  0.16995110  1  -0.442472  -0.000538  3.338299  0.0  -0.388639  -0.000376  3.57069  0.0  -0.411202  -0.000312  3.579594  0.0  -1.300754  -0.000929  -0.388527  -0.372844  -0.000421  3.564202  -0.001
N  N92  1  0.97916464  0.68284834  0.33004832  1  -0.442761  -0.000538  3.338534  0.0  -0.388717  -0.000376  3.570934  0.0  -0.41129  -0.000313  3.579817  0.0  -1.300783  -0.000929  -0.388596  -0.37291  -0.000421  3.564462  -0.001
N  N93  1  0.52083935  0.81714709  0.83004890  1  -0.442644  -0.000538  3.338374  0.0  -0.388704  -0.000376  3.570927  0.0  -0.411279  -0.000313  3.579811  0.0  -1.300765  -0.000934  -0.388552  -0.372898  -0.000423  3.564455  -0.001
O  O94  1  0.22136192  0.54986538  0.92345865  1  -0.541986  0.010617  2.127925  0.007  -0.524025  0.002379  2.414145  0.001  -0.56365  0.003196  2.409389  0.003  -1.086817  -0.000463  -0.308932  -0.496935  0.000165  2.415964  -0.002
O  O95  1  0.27864396  0.95014143  0.42346552  1  -0.541774  0.010618  2.127935  0.007  -0.523818  0.002381  2.414187  0.001  -0.563458  0.003197  2.409471  0.003  -1.086257  -0.000458  -0.308808  -0.496727  0.000167  2.415995  -0.002
O  O96  1  0.77863523  0.45015023  0.07653276  1  -0.54177  0.010621  2.127764  0.007  -0.523838  0.002381  2.414083  0.001  -0.563453  0.003198  2.409302  0.003  -1.086261  -0.000457  -0.308769  -0.496744  0.000168  2.415893  -0.002
O  O97  1  0.72136617  0.04985426  0.57653620  1  -0.541947  0.010624  2.127825  0.007  -0.523998  0.002383  2.414104  0.001  -0.563621  0.003198  2.409343  0.003  -1.0862  -0.000457  -0.308863  -0.49691  0.000169  2.415922  -0.002
O  O98  1  0.28196686  0.55447874  0.79590443  1  -0.575618  0.014299  1.901362  0.012  -0.54342  0.006143  2.11923  0.005  -0.567615  0.00386  2.112901  0.003  -1.162387  0.007439  -0.318331  -0.52528  0.007552  2.122645  0.006
O  O99  1  0.21803787  0.94553092  0.29591015  1  -0.57548  0.014298  1.901548  0.012  -0.543257  0.006143  2.119448  0.005  -0.567445  0.003862  2.113119  0.003  -1.162384  0.007446  -0.318227  -0.525131  0.007556  2.122883  0.006
O  O100  1  0.71804774  0.44552358  0.20409042  1  -0.575666  0.014297  1.901633  0.012  -0.543444  0.006142  2.119536  0.005  -0.56764  0.00386  2.113203  0.003  -1.162334  0.007445  -0.318298  -0.525302  0.007555  2.122948  0.006
O  O101  1  0.78196815  0.05446952  0.70409214  1  -0.575599  0.014294  1.90147  0.012  -0.543358  0.006141  2.119365  0.005  -0.567546  0.003862  2.113031  0.003  -1.162565  0.007438  -0.318296  -0.525229  0.00755  2.122802  0.006
O  O102  1  0.93436034  0.52502648  0.67098630  1  -0.520567  -0.000585  1.941489  -0.001  -0.482593  -0.000117  2.157697  0.0  -0.504136  -0.000181  2.153291  0.0  -1.125339  -5.8e-05  -0.275285  -0.467279  -1.3e-05  2.160185  0.0
O  O103  1  0.56562587  0.97497085  0.17098516  1  -0.52045  -0.000585  1.941989  -0.001  -0.482516  -0.000117  2.15817  0.0  -0.504058  -0.000181  2.153768  0.0  -1.125284  -5.3e-05  -0.275219  -0.467197  -1.1e-05  2.16065  0.0
O  O104  1  0.06564188  0.47496162  0.32901370  1  -0.520518  -0.000586  1.941391  -0.001  -0.482534  -0.000118  2.157623  0.0  -0.504075  -0.00018  2.153226  0.0  -1.125356  -5.3e-05  -0.275242  -0.467216  -1e-05  2.160106  0.0
O  O105  1  0.43436484  0.02503623  0.82901370  1  -0.520579  -0.000585  1.941616  -0.001  -0.482559  -0.000117  2.157831  0.0  -0.504092  -0.00018  2.153445  0.0  -1.125396  -5.9e-05  -0.275241  -0.467243  -1.4e-05  2.160315  0.0
