# generated using pymatgen
data_V2ZnH7C8(NO2)3
_symmetry_space_group_name_H-M   'P 1'
_cell_length_a   8.47991608
_cell_length_b   10.36523734
_cell_length_c   15.43945146
_cell_angle_alpha   92.88472040
_cell_angle_beta   105.73751572
_cell_angle_gamma   111.96605278
_symmetry_Int_Tables_number   1
_chemical_formula_structural   V2ZnH7C8(NO2)3
_chemical_formula_sum   'V8 Zn4 H28 C32 N12 O24'
_cell_volume   1193.73727545
_cell_formula_units_Z   4
loop_
 _symmetry_equiv_pos_site_id
 _symmetry_equiv_pos_as_xyz
  1  'x, y, z'
loop_
 _atom_site_type_symbol
 _atom_site_label
 _atom_site_symmetry_multiplicity
 _atom_site_fract_x
 _atom_site_fract_y
 _atom_site_fract_z
 _atom_site_occupancy
 _atom_site_hle17_bader_spin_density
 _atom_site_hle17_ddec_charge
 _atom_site_hle17_ddec_spin_density
 _atom_site_hle17_ddec_sum_bond_order
 _atom_site_hle17_magmom
 _atom_site_hse06_10hf_bader_spin_density
 _atom_site_hse06_10hf_ddec_charge
 _atom_site_hse06_10hf_ddec_spin_density
 _atom_site_hse06_10hf_ddec_sum_bond_order
 _atom_site_hse06_10hf_magmom
 _atom_site_hse06_bader_spin_density
 _atom_site_hse06_ddec_charge
 _atom_site_hse06_ddec_spin_density
 _atom_site_hse06_ddec_sum_bond_order
 _atom_site_hse06_magmom
 _atom_site_pbe_bader_spin_density
 _atom_site_pbe_cm5_charge
 _atom_site_pbe_ddec_charge
 _atom_site_pbe_ddec_spin_density
 _atom_site_pbe_ddec_sum_bond_order
 _atom_site_pbe_magmom
V  V0  1  0.91960287  0.55277260  0.39390722  1  0  2.031567  0  3.022008  0  0  2.097883  0  3.401596  0  0  2.190149  0  3.383878  0  0  1.477869  2.026483  0  3.429698  0
V  V1  1  0.08039491  0.44722714  0.60609283  1  0  2.031511  0  3.02199  0  0  2.097855  0  3.401525  0  0  2.190092  0  3.383854  0  0  1.47786  2.026427  0  3.429651  0
V  V2  1  0.08155531  0.44889488  0.10657381  1  0  2.031265  0  3.02347  0  0  2.096462  0  3.404839  0  0  2.18975  0  3.385575  0  0  1.477405  2.025092  0  3.433236  0
V  V3  1  0.91844085  0.55110170  0.89342719  1  0  2.031144  0  3.023656  0  0  2.096316  0  3.405048  0  0  2.18961  0  3.38578  0  0  1.477351  2.02498  0  3.433365  0
V  V4  1  0.51818032  0.54615646  0.39201745  1  0  2.010587  0  3.019487  0  0  2.077432  0  3.403147  0  0  2.169083  0  3.383474  0  0  1.455395  2.002355  0  3.442703  0
V  V5  1  0.48182398  0.45384643  0.60798172  1  0  2.010703  0  3.019515  0  0  2.077419  0  3.403359  0  0  2.169201  0  3.383489  0  0  1.45545  2.002463  0  3.442698  0
V  V6  1  0.48241845  0.45580663  0.10839691  1  0  2.010815  0  3.019355  0  0  2.078123  0  3.402487  0  0  2.169278  0  3.383502  0  0  1.455729  2.002159  0  3.44355  0
V  V7  1  0.51757688  0.54419312  0.89160536  1  0  2.010861  0  3.019417  0  0  2.078127  0  3.402612  0  0  2.169329  0  3.383554  0  0  1.455722  2.002181  0  3.443644  0
Zn  Zn8  1  0.74927775  0.26441410  0.20220182  1  0  1.180858  0  1.844146  0  0  1.046637  0  2.310625  0  0  1.097648  0  2.242903  0  0  0.704305  1.012293  0  2.3554  0
Zn  Zn9  1  0.25071812  0.73558669  0.79779862  1  0  1.180829  0  1.844187  0  0  1.046603  0  2.310653  0  0  1.097616  0  2.242927  0  0  0.704328  1.012253  0  2.355435  0
Zn  Zn10  1  0.25234100  0.73789765  0.29841524  1  0  1.181234  0  1.835088  0  0  1.046532  0  2.300334  0  0  1.097861  0  2.232532  0  0  0.70323  1.012014  0  2.345124  0
Zn  Zn11  1  0.74766207  0.26210525  0.70158505  1  0  1.181091  0  1.835207  0  0  1.04639  0  2.300445  0  0  1.097728  0  2.232636  0  0  0.703153  1.011869  0  2.345246  0
H  H12  1  0.54194824  0.73934447  0.16470624  1  0  0.319717  0  0.933075  0  0  0.302099  0  0.995121  0  0  0.311738  0  0.986812  0  0  0.30786  0.296208  0  0.999809  0
H  H13  1  0.45804831  0.26065525  0.83529232  1  0  0.319683  0  0.933155  0  0  0.302065  0  0.995204  0  0  0.311704  0  0.986897  0  0  0.307854  0.296174  0  0.999891  0
H  H14  1  0.45558768  0.26305341  0.33404370  1  0  0.320293  0  0.932853  0  0  0.302387  0  0.995085  0  0  0.312047  0  0.986786  0  0  0.307549  0.296474  0  0.999815  0
H  H15  1  0.54441608  0.73694843  0.66595730  1  0  0.320289  0  0.932856  0  0  0.302395  0  0.99506  0  0  0.312064  0  0.98676  0  0  0.307538  0.296483  0  0.999794  0
H  H16  1  0.09846730  0.32365600  0.37984617  1  0  0.083995  0  0.933572  0  0  0.089248  0  1.001433  0  0  0.092363  0  0.997781  0  0  0.125281  0.0871  0  1.003896  0
H  H17  1  0.90153116  0.67634267  0.62015265  1  0  0.084009  0  0.933561  0  0  0.089258  0  1.001421  0  0  0.092375  0  0.997771  0  0  0.125291  0.08711  0  1.003886  0
H  H18  1  0.22512074  0.17608627  0.47474586  1  0  0.106565  0  0.956969  0  0  0.113938  0  1.02256  0  0  0.117809  0  1.020181  0  0  0.109514  0.11129  0  1.024162  0
H  H19  1  0.77487704  0.82391346  0.52525418  1  0  0.106523  0  0.956973  0  0  0.113898  0  1.022566  0  0  0.117769  0  1.020189  0  0  0.109495  0.111251  0  1.024166  0
H  H20  1  0.06473959  0.90938553  0.43159921  1  0  0.099214  0  0.949846  0  0  0.111363  0  1.008329  0  0  0.114004  0  1.006772  0  0  0.109119  0.109423  0  1.009595  0
H  H21  1  0.93525819  0.09061421  0.56840148  1  0  0.099218  0  0.949906  0  0  0.111369  0  1.008383  0  0  0.114005  0  1.006838  0  0  0.109129  0.109428  0  1.009651  0
H  H22  1  0.78484527  0.80542483  0.30041196  1  0  0.136468  0  0.946721  0  0  0.148554  0  1.002433  0  0  0.153038  0  0.9993  0  0  0.115196  0.145283  0  1.004856  0
H  H23  1  0.21515305  0.19457596  0.69958819  1  0  0.136497  0  0.946696  0  0  0.148589  0  1.002399  0  0  0.153064  0  0.999278  0  0  0.115208  0.145309  0  1.004835  0
H  H24  1  0.35103864  0.03242046  0.03950370  1  0  0.102295  0  0.961425  0  0  0.113803  0  1.019626  0  0  0.115366  0  1.02007  0  0  0.119614  0.112643  0  1.019563  0
H  H25  1  0.64895860  0.96757820  0.96049429  1  0  0.102271  0  0.961353  0  0  0.113804  0  1.019532  0  0  0.115351  0  1.020016  0  0  0.119588  0.112649  0  1.019463  0
H  H26  1  0.28381011  0.74695625  0.03292525  1  0  0.115872  0  0.974195  0  0  0.120911  0  1.043772  0  0  0.124402  0  1.041146  0  0  0.125938  0.118709  0  1.045173  0
H  H27  1  0.71618781  0.25304136  0.96707281  1  0  0.115866  0  0.97425  0  0  0.120908  0  1.043819  0  0  0.124397  0  1.041192  0  0  0.125921  0.118701  0  1.045234  0
H  H28  1  0.90255206  0.67652178  0.12084265  1  0  0.083932  0  0.933414  0  0  0.089128  0  1.001372  0  0  0.092239  0  0.997739  0  0  0.125405  0.087  0  1.003811  0
H  H29  1  0.09745238  0.32347901  0.87915842  1  0  0.083887  0  0.93344  0  0  0.089093  0  1.001386  0  0  0.092205  0  0.997752  0  0  0.125389  0.086965  0  1.003826  0
H  H30  1  0.77443762  0.82227756  0.02501437  1  0  0.106705  0  0.955988  0  0  0.11402  0  1.021673  0  0  0.117906  0  1.019251  0  0  0.109912  0.111377  0  1.023285  0
H  H31  1  0.22556805  0.17772323  0.97498688  1  0  0.106686  0  0.956012  0  0  0.113985  0  1.021715  0  0  0.11787  0  1.019296  0  0  0.109906  0.111343  0  1.023326  0
H  H32  1  0.93326746  0.08926447  0.06689530  1  0  0.098825  0  0.948381  0  0  0.111635  0  1.005905  0  0  0.114277  0  1.004371  0  0  0.109183  0.109602  0  1.007324  0
H  H33  1  0.06673645  0.91073526  0.93310500  1  0  0.098767  0  0.94843  0  0  0.111574  0  1.005961  0  0  0.114214  0  1.004429  0  0  0.109181  0.109538  0  1.007385  0
H  H34  1  0.21359296  0.19507729  0.19767511  1  0  0.136147  0  0.946073  0  0  0.147852  0  1.002435  0  0  0.152343  0  0.999318  0  0  0.11576  0.144665  0  1.004756  0
H  H35  1  0.78641149  0.80492350  0.80232661  1  0  0.136229  0  0.945983  0  0  0.147904  0  1.002388  0  0  0.152396  0  0.999265  0  0  0.115772  0.144717  0  1.004708  0
H  H36  1  0.64970857  0.97293751  0.46118426  1  0  0.102634  0  0.960023  0  0  0.114372  0  1.017723  0  0  0.115914  0  1.018224  0  0  0.119996  0.113201  0  1.017758  0
H  H37  1  0.35029328  0.02706540  0.53881778  1  0  0.102645  0  0.959965  0  0  0.114384  0  1.017665  0  0  0.115926  0  1.018166  0  0  0.12  0.113213  0  1.0177  0
H  H38  1  0.71367485  0.25754300  0.46658226  1  0  0.115256  0  0.976107  0  0  0.120047  0  1.046088  0  0  0.123451  0  1.043515  0  0  0.125763  0.117893  0  1.047473  0
H  H39  1  0.28632415  0.74245674  0.53341862  1  0  0.115216  0  0.976202  0  0  0.12002  0  1.046162  0  0  0.123427  0  1.04359  0  0  0.125747  0.117866  0  1.047545  0
C  C40  1  0.03336841  0.20886796  0.36456751  1  0  0.158486  0  3.690823  0  0  0.128951  0  3.944399  0  0  0.136642  0  3.960936  0  0  0.061092  0.124015  0  3.933079  0
C  C41  1  0.96663181  0.79113177  0.63543160  1  0  0.158428  0  3.690859  0  0  0.128897  0  3.944427  0  0  0.136586  0  3.960967  0  0  0.061081  0.12396  0  3.933108  0
C  C42  1  0.10337035  0.12556376  0.41691724  1  0  -0.127592  0  3.717653  0  0  -0.142996  0  3.974669  0  0  -0.148961  0  3.994277  0  0  -0.084138  -0.13911  0  3.961422  0
C  C43  1  0.89662865  0.87443598  0.58308363  1  0  -0.127569  0  3.71769  0  0  -0.14297  0  3.974707  0  0  -0.148935  0  3.994314  0  0  -0.084143  -0.139084  0  3.961457  0
C  C44  1  0.01419837  0.97894354  0.39352504  1  0  -0.001033  0  3.717057  0  0  -0.019556  0  3.969468  0  0  -0.016017  0  3.987352  0  0  -0.066064  -0.021746  0  3.957524  0
C  C45  1  0.98579872  0.02105725  0.60647428  1  0  -0.000937  0  3.716943  0  0  -0.019468  0  3.969351  0  0  -0.015928  0  3.987229  0  0  -0.066025  -0.02166  0  3.957406  0
C  C46  1  0.85770042  0.91958378  0.31969282  1  0  -0.120528  0  3.643534  0  0  -0.140961  0  3.88681  0  0  -0.146543  0  3.90533  0  0  -0.075059  -0.137351  0  3.874659  0
C  C47  1  0.14229790  0.08041701  0.68030733  1  0  -0.120639  0  3.643461  0  0  -0.14107  0  3.886728  0  0  -0.146644  0  3.905252  0  0  -0.075105  -0.137458  0  3.874579  0
C  C48  1  0.79639260  0.01061406  0.27099588  1  0  0.149059  0  3.829661  0  0  0.148913  0  4.072772  0  0  0.154227  0  4.094492  0  0  0.119464  0.145116  0  4.058239  0
C  C49  1  0.20360395  0.98938566  0.72900203  1  0  0.148987  0  3.82972  0  0  0.148836  0  4.072803  0  0  0.154152  0  4.094517  0  0  0.11945  0.145065  0  4.058251  0
C  C50  1  0.63474768  0.96427889  0.19329025  1  0  0.273419  0  3.787543  0  0  0.241443  0  4.049916  0  0  0.25338  0  4.06695  0  0  0.21323  0.234144  0  4.037839  0
C  C51  1  0.36524888  0.03572085  0.80670896  1  0  0.273452  0  3.787428  0  0  0.241522  0  4.049758  0  0  0.253462  0  4.066788  0  0  0.213257  0.234198  0  4.037707  0
C  C52  1  0.42358206  0.98098572  0.08285731  1  0  0.022829  0  3.730013  0  0  -0.009681  0  3.996806  0  0  -0.008959  0  4.020133  0  0  0.008249  -0.010113  0  3.981288  0
C  C53  1  0.57641395  0.01901294  0.91714049  1  0  0.022814  0  3.72993  0  0  -0.009708  0  3.996713  0  0  -0.008994  0  4.020047  0  0  0.008225  -0.010144  0  3.981189  0
C  C54  1  0.38891398  0.83932167  0.07958035  1  0  0.019097  0  3.627027  0  0  -0.020857  0  3.891855  0  0  -0.020077  0  3.910882  0  0  0.017381  -0.021245  0  3.878883  0
C  C55  1  0.61108502  0.16067806  0.92041793  1  0  0.019022  0  3.627169  0  0  -0.020917  0  3.892024  0  0  -0.020135  0  3.91105  0  0  0.017363  -0.021307  0  3.879048  0
C  C56  1  0.96698610  0.79133333  0.13561141  1  0  0.158904  0  3.690239  0  0  0.129299  0  3.944057  0  0  0.136998  0  3.960612  0  0  0.06099  0.124345  0  3.93273  0
C  C57  1  0.03301780  0.20866640  0.86438825  1  0  0.158881  0  3.690287  0  0  0.129287  0  3.944126  0  0  0.136986  0  3.96068  0  0  0.060977  0.124333  0  3.932796  0
C  C58  1  0.89612611  0.87371342  0.08274347  1  0  -0.12865  0  3.715667  0  0  -0.144051  0  3.973121  0  0  -0.150023  0  3.992684  0  0  -0.08473  -0.14015  0  3.959869  0
C  C59  1  0.10388010  0.12628842  0.91725660  1  0  -0.128589  0  3.715521  0  0  -0.14398  0  3.972974  0  0  -0.149953  0  3.992546  0  0  -0.084694  -0.140078  0  3.959722  0
C  C60  1  0.98443726  0.02043105  0.10544787  1  0  0.000563  0  3.715058  0  0  -0.018108  0  3.967315  0  0  -0.014539  0  3.985171  0  0  -0.064787  -0.020291  0  3.955409  0
C  C61  1  0.01557018  0.97957080  0.89455368  1  0  0.000653  0  3.71492  0  0  -0.017999  0  3.967145  0  0  -0.014431  0  3.985001  0  0  -0.064802  -0.020181  0  3.955235  0
C  C62  1  0.14113641  0.08081097  0.17909882  1  0  -0.120511  0  3.643362  0  0  -0.141206  0  3.887116  0  0  -0.146841  0  3.905689  0  0  -0.076093  -0.13765  0  3.874855  0
C  C63  1  0.85886749  0.91918877  0.82090343  1  0  -0.120637  0  3.643269  0  0  -0.141334  0  3.88702  0  0  -0.146965  0  3.905584  0  0  -0.07612  -0.137778  0  3.874758  0
C  C64  1  0.20323117  0.99063791  0.22839779  1  0  0.146287  0  3.83301  0  0  0.147651  0  4.075218  0  0  0.153017  0  4.09694  0  0  0.11935  0.14388  0  4.060627  0
C  C65  1  0.79677151  0.00936183  0.77160299  1  0  0.146309  0  3.832927  0  0  0.147706  0  4.075117  0  0  0.153074  0  4.096834  0  0  0.119385  0.143935  0  4.060523  0
C  C66  1  0.36489408  0.03806451  0.30612628  1  0  0.274652  0  3.790345  0  0  0.240092  0  4.054673  0  0  0.251952  0  4.071931  0  0  0.211715  0.232837  0  4.042437  0
C  C67  1  0.63510860  0.96193523  0.69387514  1  0  0.274692  0  3.790282  0  0  0.240136  0  4.054592  0  0  0.251995  0  4.071847  0  0  0.211739  0.232881  0  4.042357  0
C  C68  1  0.57636227  0.02334041  0.41730829  1  0  0.021066  0  3.728453  0  0  -0.011811  0  3.995716  0  0  -0.011076  0  4.019019  0  0  0.006465  -0.012297  0  3.980118  0
C  C69  1  0.42363918  0.97665933  0.58269295  1  0  0.021039  0  3.728462  0  0  -0.011837  0  3.995741  0  0  -0.0111  0  4.019042  0  0  0.006454  -0.012325  0  3.98015  0
C  C70  1  0.60952918  0.16469378  0.42000612  1  0  0.020902  0  3.627454  0  0  -0.019344  0  3.8924  0  0  -0.018378  0  3.911357  0  0  0.018289  -0.019814  0  3.879411  0
C  C71  1  0.39047566  0.83531018  0.57999576  1  0  0.020948  0  3.627763  0  0  -0.019313  0  3.892707  0  0  -0.018351  0  3.911668  0  0  0.018331  -0.019784  0  3.879714  0
N  N72  1  0.88386903  0.15289444  0.29304186  1  0  -0.373533  0  3.253924  0  0  -0.305308  0  3.511436  0  0  -0.324034  0  3.528537  0  0  -0.313753  -0.292648  0  3.499972  0
N  N73  1  0.11613173  0.84710635  0.70695802  1  0  -0.373435  0  3.25389  0  0  -0.305212  0  3.511391  0  0  -0.323937  0  3.528491  0  0  -0.313729  -0.292557  0  3.499919  0
N  N74  1  0.57655228  0.05718531  0.15363424  1  0  -0.433316  0  3.267937  0  0  -0.365391  0  3.555561  0  0  -0.385499  0  3.568362  0  0  -0.353983  -0.35249  0  3.54688  0
N  N75  1  0.42344196  0.94281230  0.84636326  1  0  -0.433295  0  3.267948  0  0  -0.365366  0  3.555565  0  0  -0.385478  0  3.568373  0  0  -0.353959  -0.352458  0  3.546891  0
N  N76  1  0.52291334  0.83120576  0.14994023  1  0  -0.302271  0  3.401765  0  0  -0.235293  0  3.624118  0  0  -0.251505  0  3.638434  0  0  -0.360839  -0.225022  0  3.614106  0
N  N77  1  0.47708321  0.16879397  0.85005898  1  0  -0.302169  0  3.401721  0  0  -0.235238  0  3.624122  0  0  -0.251451  0  3.638435  0  0  -0.360814  -0.224961  0  3.614115  0
N  N78  1  0.11652181  0.84826134  0.20704961  1  0  -0.372622  0  3.254128  0  0  -0.304556  0  3.511236  0  0  -0.323328  0  3.528321  0  0  -0.313257  -0.29189  0  3.499759  0
N  N79  1  0.88348087  0.15173840  0.79295181  1  0  -0.372588  0  3.254149  0  0  -0.304567  0  3.511284  0  0  -0.323339  0  3.528373  0  0  -0.313275  -0.291904  0  3.499812  0
N  N80  1  0.42404963  0.94599944  0.34640451  1  0  -0.432131  0  3.262447  0  0  -0.362968  0  3.550018  0  0  -0.383062  0  3.562812  0  0  -0.351143  -0.350078  0  3.541331  0
N  N81  1  0.57595413  0.05400241  0.65359649  1  0  -0.432097  0  3.262348  0  0  -0.362944  0  3.549921  0  0  -0.383036  0  3.562712  0  0  -0.351135  -0.350048  0  3.54122  0
N  N82  1  0.47539336  0.17155482  0.34917250  1  0  -0.30422  0  3.404107  0  0  -0.235723  0  3.626279  0  0  -0.252049  0  3.640821  0  0  -0.360731  -0.225392  0  3.616079  0
N  N83  1  0.52460687  0.82844492  0.65082856  1  0  -0.304216  0  3.404143  0  0  -0.23572  0  3.626271  0  0  -0.25206  0  3.640832  0  0  -0.360726  -0.225388  0  3.616069  0
O  O84  1  0.50000283  0.50000039  0.50000030  1  0  -1.024437  0  1.581041  0  0  -1.047607  0  1.876561  0  0  -1.093129  0  1.868731  0  0  -0.707932  -1.009819  0  1.88623  0
O  O85  1  0.49999631  0.50000160  0.00000083  1  0  -1.024343  0  1.583203  0  0  -1.047924  0  1.878422  0  0  -1.093131  0  1.870691  0  0  -0.708058  -1.009593  0  1.888481  0
O  O86  1  0.59531955  0.60127429  0.18507560  1  0  -0.819395  0  1.378935  0  0  -0.840845  0  1.645973  0  0  -0.872024  0  1.639613  0  0  -0.593947  -0.816279  0  1.65231  0
O  O87  1  0.40467755  0.39872651  0.81492567  1  0  -0.819407  0  1.378972  0  0  -0.840844  0  1.646035  0  0  -0.872041  0  1.639674  0  0  -0.593939  -0.816283  0  1.652369  0
O  O88  1  0.40429418  0.40182653  0.31443725  1  0  -0.817744  0  1.379532  0  0  -0.839184  0  1.647106  0  0  -0.870441  0  1.640614  0  0  -0.593161  -0.814883  0  1.653176  0
O  O89  1  0.59571707  0.59817319  0.68556222  1  0  -0.817774  0  1.379565  0  0  -0.839165  0  1.647158  0  0  -0.870463  0  1.640629  0  0  -0.593163  -0.814893  0  1.653164  0
O  O90  1  0.44007143  0.67028755  0.36783365  1  0  -0.872569  0  1.458268  0  0  -0.863673  0  1.755749  0  0  -0.899276  0  1.738284  0  0  -0.617136  -0.836777  0  1.77062  0
O  O91  1  0.55993001  0.32971214  0.63216111  1  0  -0.87262  0  1.458318  0  0  -0.863675  0  1.755819  0  0  -0.899321  0  1.738326  0  0  -0.617158  -0.836816  0  1.770651  0
O  O92  1  0.56158177  0.33255611  0.13354404  1  0  -0.871971  0  1.459044  0  0  -0.863401  0  1.756428  0  0  -0.898728  0  1.739017  0  0  -0.617319  -0.836328  0  1.771558  0
O  O93  1  0.43841424  0.66744257  0.86645506  1  0  -0.871965  0  1.459043  0  0  -0.863373  0  1.756428  0  0  -0.89872  0  1.739023  0  0  -0.617312  -0.836304  0  1.771555  0
O  O94  1  0.00000221  0.49999787  0.50000008  1  0  -1.026776  0  1.59954  0  0  -1.053443  0  1.906187  0  0  -1.098226  0  1.898635  0  0  -0.70074  -1.017937  0  1.913059  0
O  O95  1  0.99999709  0.50000202  0.00000165  1  0  -1.026546  0  1.597168  0  0  -1.052767  0  1.903702  0  0  -1.098069  0  1.895779  0  0  -0.700931  -1.017336  0  1.910614  0
O  O96  1  0.91185109  0.31805014  0.12565108  1  0  -0.882643  0  1.503241  0  0  -0.870391  0  1.808638  0  0  -0.905728  0  1.789582  0  0  -0.611656  -0.844675  0  1.823083  0
O  O97  1  0.08814654  0.68195170  0.87434836  1  0  -0.882618  0  1.503207  0  0  -0.870347  0  1.808605  0  0  -0.905688  0  1.789553  0  0  -0.611652  -0.844638  0  1.823034  0
O  O98  1  0.08971508  0.68381463  0.37518264  1  0  -0.883409  0  1.500295  0  0  -0.871481  0  1.80554  0  0  -0.906596  0  1.786711  0  0  -0.611511  -0.845689  0  1.81998  0
O  O99  1  0.91028545  0.31618089  0.62481833  1  0  -0.883376  0  1.500283  0  0  -0.871455  0  1.805523  0  0  -0.90656  0  1.786696  0  0  -0.611499  -0.845653  0  1.819962  0
O  O100  1  0.16904541  0.58742660  0.18926894  1  0  -0.875055  0  1.547444  0  0  -0.872749  0  1.868574  0  0  -0.909038  0  1.851519  0  0  -0.604442  -0.846239  0  1.881082  0
O  O101  1  0.83095115  0.41257316  0.81073481  1  0  -0.874991  0  1.54756  0  0  -0.872695  0  1.868743  0  0  -0.908985  0  1.851688  0  0  -0.604411  -0.846193  0  1.881238  0
O  O102  1  0.83280174  0.41479148  0.31096352  1  0  -0.873338  0  1.55048  0  0  -0.871085  0  1.871555  0  0  -0.906978  0  1.854598  0  0  -0.604387  -0.844618  0  1.884172  0
O  O103  1  0.16719373  0.58520614  0.68903481  1  0  -0.873284  0  1.550461  0  0  -0.871061  0  1.871563  0  0  -0.906939  0  1.854612  0  0  -0.604389  -0.844584  0  1.884178  0
O  O104  1  0.75489101  0.61479408  0.40344564  1  0  -0.978275  0  1.577968  0  0  -1.004219  0  1.883108  0  0  -1.048463  0  1.877104  0  0  -0.68461  -0.968387  0  1.889349  0
O  O105  1  0.24511260  0.38520987  0.59655346  1  0  -0.978278  0  1.577844  0  0  -1.004203  0  1.883006  0  0  -1.048469  0  1.876984  0  0  -0.684617  -0.968393  0  1.889214  0
O  O106  1  0.24570015  0.38632527  0.09689808  1  0  -0.977657  0  1.579394  0  0  -1.003064  0  1.884023  0  0  -1.04744  0  1.877973  0  0  -0.684667  -0.967104  0  1.890465  0
O  O107  1  0.75429695  0.61367554  0.90310383  1  0  -0.977614  0  1.579297  0  0  -1.003015  0  1.883962  0  0  -1.047403  0  1.877901  0  0  -0.684649  -0.96707  0  1.890392  0
