# generated using pymatgen
data_CdH24C24(N6Cl)2
_symmetry_space_group_name_H-M   'P 1'
_cell_length_a   7.56179966
_cell_length_b   8.82938595
_cell_length_c   11.33443885
_cell_angle_alpha   105.64199461
_cell_angle_beta   90.41255734
_cell_angle_gamma   111.59211688
_symmetry_Int_Tables_number   1
_chemical_formula_structural   CdH24C24(N6Cl)2
_chemical_formula_sum   'Cd1 H24 C24 N12 Cl2'
_cell_volume   672.78932216
_cell_formula_units_Z   1
loop_
 _symmetry_equiv_pos_site_id
 _symmetry_equiv_pos_as_xyz
  1  'x, y, z'
loop_
 _atom_site_type_symbol
 _atom_site_label
 _atom_site_symmetry_multiplicity
 _atom_site_fract_x
 _atom_site_fract_y
 _atom_site_fract_z
 _atom_site_occupancy
 _atom_site_hle17_bader_spin_density
 _atom_site_hle17_ddec_charge
 _atom_site_hle17_ddec_spin_density
 _atom_site_hle17_ddec_sum_bond_order
 _atom_site_hle17_magmom
 _atom_site_hse06_10hf_bader_spin_density
 _atom_site_hse06_10hf_ddec_charge
 _atom_site_hse06_10hf_ddec_spin_density
 _atom_site_hse06_10hf_ddec_sum_bond_order
 _atom_site_hse06_10hf_magmom
 _atom_site_hse06_bader_spin_density
 _atom_site_hse06_ddec_charge
 _atom_site_hse06_ddec_spin_density
 _atom_site_hse06_ddec_sum_bond_order
 _atom_site_hse06_magmom
 _atom_site_pbe_bader_spin_density
 _atom_site_pbe_cm5_charge
 _atom_site_pbe_ddec_charge
 _atom_site_pbe_ddec_spin_density
 _atom_site_pbe_ddec_sum_bond_order
 _atom_site_pbe_magmom
Cd  Cd0  1  0.99999881  0.50000090  0.49999983  1  0  0.97895  0  1.93842  0  0  0.794558  0  2.397303  0  0  0.840968  0  2.35891  0  0  0.682495  0.762214  0  2.423189  0
H  H1  1  0.23190891  0.00653758  0.86827787  1  0  0.097567  0  0.989392  0  0  0.104248  0  1.05999  0  0  0.106876  0  1.05914  0  0  0.099749  0.102409  0  1.060593  0
H  H2  1  0.76809483  0.99345882  0.13172197  1  0  0.097579  0  0.989402  0  0  0.10425  0  1.060002  0  0  0.10689  0  1.059139  0  0  0.099739  0.102413  0  1.060609  0
H  H3  1  0.69931211  0.40456046  0.78392951  1  0  0.090002  0  0.977069  0  0  0.098555  0  1.04485  0  0  0.100426  0  1.045388  0  0  0.09642  0.097093  0  1.044826  0
H  H4  1  0.30069037  0.59544229  0.21607255  1  0  0.090017  0  0.977078  0  0  0.098555  0  1.044872  0  0  0.100428  0  1.045407  0  0  0.09642  0.097089  0  1.044849  0
H  H5  1  0.81517004  0.53816971  0.00781833  1  0  0.091245  0  0.954448  0  0  0.100071  0  1.015348  0  0  0.103005  0  1.014343  0  0  0.099538  0.097962  0  1.016119  0
H  H6  1  0.18482979  0.46183302  0.99218283  1  0  0.091243  0  0.954445  0  0  0.100067  0  1.015344  0  0  0.103002  0  1.01434  0  0  0.099541  0.097959  0  1.016115  0
H  H7  1  0.63454842  0.40535928  0.16220349  1  0  0.085935  0  0.963131  0  0  0.09614  0  1.029111  0  0  0.098521  0  1.028003  0  0  0.096338  0.094347  0  1.030107  0
H  H8  1  0.36544851  0.59464598  0.83779907  1  0  0.085917  0  0.963189  0  0  0.09612  0  1.029165  0  0  0.098501  0  1.028057  0  0  0.096331  0.094325  0  1.030162  0
H  H9  1  0.21781563  0.98195857  0.07203205  1  0  0.100684  0  0.92173  0  0  0.110319  0  0.99064  0  0  0.112397  0  0.988556  0  0  0.117181  0.108888  0  0.991961  0
H  H10  1  0.78217993  0.01804033  0.92796651  1  0  0.100692  0  0.921744  0  0  0.110324  0  0.990652  0  0  0.112402  0  0.988568  0  0  0.117182  0.108893  0  0.991973  0
H  H11  1  0.41307835  0.11633527  0.19069231  1  0  0.093604  0  0.930466  0  0  0.106628  0  0.996762  0  0  0.107336  0  0.99679  0  0  0.112249  0.10599  0  0.996867  0
H  H12  1  0.58691611  0.88366107  0.80930923  1  0  0.093612  0  0.930448  0  0  0.106632  0  0.996741  0  0  0.107339  0  0.996769  0  0  0.112224  0.105993  0  0.996847  0
H  H13  1  0.48520888  0.16777869  0.61702040  1  0  0.088796  0  0.954944  0  0  0.100247  0  1.025875  0  0  0.101669  0  1.024428  0  0  0.103042  0.099003  0  1.027256  0
H  H14  1  0.51479494  0.83222407  0.38297814  1  0  0.088835  0  0.954953  0  0  0.100267  0  1.025892  0  0  0.101693  0  1.024441  0  0  0.103053  0.099023  0  1.027271  0
H  H15  1  0.32053506  0.98249810  0.64917326  1  0  0.104013  0  0.949827  0  0  0.112853  0  1.021268  0  0  0.114977  0  1.019043  0  0  0.103142  0.111345  0  1.022748  0
H  H16  1  0.67946314  0.01750082  0.35082444  1  0  0.104005  0  0.949908  0  0  0.112841  0  1.021347  0  0  0.114968  0  1.019115  0  0  0.103114  0.11133  0  1.022827  0
H  H17  1  0.87054618  0.34373266  0.18128441  1  0  0.081899  0  0.96957  0  0  0.090361  0  1.035498  0  0  0.092015  0  1.034016  0  0  0.126054  0.089039  0  1.03666  0
H  H18  1  0.12945364  0.65627007  0.81871940  1  0  0.081922  0  0.969624  0  0  0.09037  0  1.035551  0  0  0.09203  0  1.034066  0  0  0.126053  0.089054  0  1.036718  0
H  H19  1  0.32518962  0.29829035  0.36640449  1  0  0.101861  0  0.987158  0  0  0.106568  0  1.063113  0  0  0.10941  0  1.059148  0  0  0.120097  0.104404  0  1.06599  0
H  H20  1  0.67480937  0.70170729  0.63359471  1  0  0.101862  0  0.98717  0  0  0.106567  0  1.063132  0  0  0.109409  0  1.059165  0  0  0.120099  0.104403  0  1.066007  0
H  H21  1  0.79049942  0.13972759  0.63174475  1  0  0.092312  0  0.929984  0  0  0.104064  0  0.989069  0  0  0.105868  0  0.987096  0  0  0.131724  0.102691  0  0.990532  0
H  H22  1  0.20950329  0.86027260  0.36825942  1  0  0.09235  0  0.929902  0  0  0.104041  0  0.989061  0  0  0.105842  0  0.987089  0  0  0.131723  0.102668  0  0.990522  0
H  H23  1  0.36751936  0.39416508  0.59088486  1  0  0.103054  0  0.962522  0  0  0.106463  0  1.039017  0  0  0.109356  0  1.035195  0  0  0.125423  0.104254  0  1.041826  0
H  H24  1  0.63247808  0.60583512  0.40910870  1  0  0.103114  0  0.96244  0  0  0.106474  0  1.038992  0  0  0.109387  0  1.035147  0  0  0.1254  0.104263  0  1.041803  0
C  C25  1  0.42586400  0.19427101  0.02420110  1  0  0.07797  0  3.761182  0  0  0.098326  0  4.003751  0  0  0.097274  0  4.028682  0  0  -0.011683  0.099133  0  3.986516  0
C  C26  1  0.57413662  0.80573046  0.97579891  1  0  0.078058  0  3.761139  0  0  0.098418  0  4.003701  0  0  0.097364  0  4.028635  0  0  -0.011675  0.099222  0  3.986463  0
C  C27  1  0.36108550  0.12187712  0.89856931  1  0  -0.148036  0  3.696906  0  0  -0.176292  0  3.939544  0  0  -0.178962  0  3.960422  0  0  -0.08887  -0.174446  0  3.925299  0
C  C28  1  0.63891668  0.87812181  0.10143106  1  0  -0.148113  0  3.696898  0  0  -0.176363  0  3.939554  0  0  -0.17904  0  3.96042  0  0  -0.088887  -0.174519  0  3.925313  0
C  C29  1  0.45723557  0.19770008  0.81162214  1  0  0.071152  0  3.764651  0  0  0.094339  0  4.002462  0  0  0.092746  0  4.028032  0  0  -0.016727  0.095484  0  3.984892  0
C  C30  1  0.54276528  0.80229885  0.18837822  1  0  0.07123  0  3.764725  0  0  0.094403  0  4.00254  0  0  0.092813  0  4.028107  0  0  -0.016692  0.095545  0  3.984968  0
C  C31  1  0.62301252  0.34608859  0.85169137  1  0  -0.126057  0  3.746416  0  0  -0.148184  0  3.993533  0  0  -0.151379  0  4.017204  0  0  -0.096301  -0.14569  0  3.977227  0
C  C32  1  0.37698887  0.65391161  0.14830926  1  0  -0.126182  0  3.746582  0  0  -0.148299  0  3.993701  0  0  -0.151495  0  4.017369  0  0  -0.096362  -0.145801  0  3.977391  0
C  C33  1  0.68876090  0.42008582  0.97747799  1  0  -0.055858  0  3.783489  0  0  -0.066696  0  4.030585  0  0  -0.068536  0  4.052705  0  0  -0.092227  -0.06539  0  4.015324  0
C  C34  1  0.31123971  0.57991565  0.02252203  1  0  -0.055752  0  3.783457  0  0  -0.066579  0  4.030537  0  0  -0.06842  0  4.052659  0  0  -0.092188  -0.065274  0  4.015277  0
C  C35  1  0.58886221  0.34549230  0.06341251  1  0  -0.120819  0  3.747352  0  0  -0.140886  0  3.993328  0  0  -0.143697  0  4.015679  0  0  -0.093077  -0.138636  0  3.977824  0
C  C36  1  0.41113895  0.65451043  0.93658954  1  0  -0.120882  0  3.747441  0  0  -0.140952  0  3.993401  0  0  -0.143764  0  4.015756  0  0  -0.093068  -0.1387  0  3.977898  0
C  C37  1  0.31619575  0.11387756  0.11682038  1  0  -0.057923  0  3.639329  0  0  -0.136864  0  3.884942  0  0  -0.132858  0  3.894602  0  0  -0.041876  -0.13903  0  3.877975  0
C  C38  1  0.68380378  0.88612136  0.88317909  1  0  -0.057964  0  3.639372  0  0  -0.136924  0  3.884988  0  0  -0.132915  0  3.894646  0  0  -0.04186  -0.139088  0  3.878021  0
C  C39  1  0.37667173  0.12237149  0.67706556  1  0  -0.073373  0  3.644102  0  0  -0.150346  0  3.886256  0  0  -0.146607  0  3.895731  0  0  -0.052522  -0.152479  0  3.8797  0
C  C40  1  0.62333418  0.87763001  0.32293448  1  0  -0.073412  0  3.644293  0  0  -0.15035  0  3.886366  0  0  -0.146602  0  3.89583  0  0  -0.052493  -0.152474  0  3.879795  0
C  C41  1  0.99009246  0.31106561  0.20068786  1  0  0.189228  0  3.739102  0  0  0.138826  0  4.027508  0  0  0.150479  0  4.039142  0  0  0.141411  0.13145  0  4.019238  0
C  C42  1  0.00990760  0.68893458  0.79931364  1  0  0.189167  0  3.739136  0  0  0.138764  0  4.027557  0  0  0.150412  0  4.039187  0  0  0.141418  0.131379  0  4.019296  0
C  C43  1  0.21682414  0.28959700  0.29838394  1  0  0.171683  0  3.649473  0  0  0.090295  0  3.922784  0  0  0.104906  0  3.933812  0  0  0.15713  0.081133  0  3.915105  0
C  C44  1  0.78317539  0.71040193  0.70161553  1  0  0.171633  0  3.649549  0  0  0.090239  0  3.922841  0  0  0.104849  0  3.933873  0  0  0.157103  0.08108  0  3.915159  0
C  C45  1  0.94411387  0.17545363  0.63287324  1  0  0.196108  0  3.715756  0  0  0.144607  0  4.00699  0  0  0.156109  0  4.019378  0  0  0.138439  0.137248  0  3.998141  0
C  C46  1  0.05588535  0.82454147  0.36712543  1  0  0.196086  0  3.715696  0  0  0.14463  0  4.006934  0  0  0.156137  0  4.019314  0  0  0.138435  0.137272  0  3.998082  0
C  C47  1  0.23469991  0.30749173  0.61119244  1  0  0.153587  0  3.664118  0  0  0.080248  0  3.925956  0  0  0.093456  0  3.938767  0  0  0.148794  0.072037  0  3.917038  0
C  C48  1  0.76530148  0.69250848  0.38880643  1  0  0.153584  0  3.664058  0  0  0.080261  0  3.925917  0  0  0.093463  0  3.938704  0  0  0.1488  0.07205  0  3.916999  0
N  N49  1  0.20203122  0.20799717  0.17792311  1  0  0.049873  0  3.55638  0  0  0.170853  0  3.74348  0  0  0.159686  0  3.767905  0  0  -0.12917  0.176607  0  3.729705  0
N  N50  1  0.79796753  0.79200302  0.82207663  1  0  0.049889  0  3.556457  0  0  0.170917  0  3.743494  0  0  0.159749  0  3.767921  0  0  -0.129131  0.176664  0  3.729727  0
N  N51  1  0.05804343  0.22049255  0.11338358  1  0  -0.26863  0  2.850901  0  0  -0.267196  0  3.118986  0  0  -0.273736  0  3.129916  0  0  -0.219572  -0.262543  0  3.111583  0
N  N52  1  0.94195507  0.77951018  0.88661669  1  0  -0.268541  0  2.850913  0  0  -0.267116  0  3.118989  0  0  -0.27365  0  3.129909  0  0  -0.219561  -0.26246  0  3.111585  0
N  N53  1  0.08327356  0.35653426  0.31585124  1  0  -0.414283  0  3.232601  0  0  -0.344974  0  3.528923  0  0  -0.367355  0  3.543951  0  0  -0.353981  -0.329847  0  3.51815  0
N  N54  1  0.91672650  0.64346593  0.68414938  1  0  -0.414273  0  3.232553  0  0  -0.344963  0  3.528874  0  0  -0.367344  0  3.543907  0  0  -0.353993  -0.329836  0  3.518103  0
N  N55  1  0.22023180  0.17259430  0.64959408  1  0  0.056547  0  3.551778  0  0  0.177421  0  3.737522  0  0  0.166706  0  3.761893  0  0  -0.127578  0.183267  0  3.72299  0
N  N56  1  0.77977333  0.82740846  0.35040800  1  0  0.056388  0  3.552017  0  0  0.177323  0  3.737683  0  0  0.166558  0  3.762147  0  0  -0.127656  0.183167  0  3.723148  0
N  N57  1  0.03521727  0.08652336  0.66491643  1  0  -0.267095  0  2.822905  0  0  -0.269482  0  3.089412  0  0  -0.27671  0  3.103223  0  0  -0.224678  -0.264291  0  3.079953  0
N  N58  1  0.96478810  0.91347686  0.33508511  1  0  -0.266931  0  2.823025  0  0  -0.269339  0  3.089511  0  0  -0.276556  0  3.103323  0  0  -0.22458  -0.264149  0  3.080052  0
N  N59  1  0.06133856  0.31322379  0.59950886  1  0  -0.409037  0  3.190424  0  0  -0.339252  0  3.478488  0  0  -0.360694  0  3.493867  0  0  -0.349131  -0.324794  0  3.467482  0
N  N60  1  0.93866013  0.68677005  0.40048689  1  0  -0.409118  0  3.190477  0  0  -0.339314  0  3.478488  0  0  -0.360755  0  3.493863  0  0  -0.349144  -0.324856  0  3.467481  0
Cl  Cl61  1  0.36857837  0.70187208  0.56281947  1  0  -0.645489  0  0.762146  0  0  -0.588538  0  1.002017  0  0  -0.603171  0  0.982679  0  0  -0.360587  -0.577742  0  1.015719  0
Cl  Cl62  1  0.63141959  0.29812938  0.43718053  1  0  -0.645484  0  0.762129  0  0  -0.588542  0  1.002014  0  0  -0.603178  0  0.982679  0  0  -0.360592  -0.577748  0  1.01572  0
