# generated using pymatgen
data_Ni3H22C30(N3O7)2
_symmetry_space_group_name_H-M   'P 1'
_cell_length_a   6.84468747
_cell_length_b   20.21953060
_cell_length_c   20.47091107
_cell_angle_alpha   117.38322092
_cell_angle_beta   89.99950580
_cell_angle_gamma   89.99914774
_symmetry_Int_Tables_number   1
_chemical_formula_structural   Ni3H22C30(N3O7)2
_chemical_formula_sum   'Ni6 H44 C60 N12 O28'
_cell_volume   2515.65124051
_cell_formula_units_Z   2
loop_
 _symmetry_equiv_pos_site_id
 _symmetry_equiv_pos_as_xyz
  1  'x, y, z'
loop_
 _atom_site_type_symbol
 _atom_site_label
 _atom_site_symmetry_multiplicity
 _atom_site_fract_x
 _atom_site_fract_y
 _atom_site_fract_z
 _atom_site_occupancy
 _atom_site_pbe_bader_charge
 _atom_site_pbe_bader_spin_density
 _atom_site_pbe_cm5_charge
 _atom_site_pbe_ddec_charge
 _atom_site_pbe_ddec_spin_density
 _atom_site_pbe_ddec_sum_bond_order
 _atom_site_pbe_magmom
Ni  Ni0  1  0.51089897  0.12985861  0.42227191  1  1.199038  1.555469  0.668775  0.789015  1.763341  2.526991  1.54
Ni  Ni1  1  0.51091370  0.37013377  0.57772146  1  1.198937  1.555457  0.668791  0.789055  1.763355  2.527063  1.54
Ni  Ni2  1  0.48910936  0.87013636  0.57772557  1  1.198954  1.555462  0.668694  0.788855  1.763327  2.527258  1.54
Ni  Ni3  1  0.48908586  0.62986288  0.42227681  1  1.198933  1.555462  0.668777  0.78909  1.763359  2.527058  1.54
Ni  Ni4  1  0.39570880  0.25001076  0.00000664  1  1.193505  1.565649  0.657198  0.807262  1.782008  2.544997  1.551
Ni  Ni5  1  0.60427907  0.74999925  0.99999835  1  1.193759  1.565644  0.657217  0.807241  1.781985  2.545004  1.551
H  H6  1  0.50997380  0.40831676  0.43763612  1  0.19078  0.00053  0.109179  0.128958  0.000372  1.040712  0.0
H  H7  1  0.50996443  0.09168278  0.56236598  1  0.19083  0.00053  0.109244  0.129  0.000372  1.040686  0.0
H  H8  1  0.49002576  0.59167989  0.56236215  1  0.190738  0.00053  0.109188  0.128928  0.000372  1.040726  0.0
H  H9  1  0.49003659  0.90831497  0.43763329  1  0.190836  0.00053  0.109234  0.128972  0.000372  1.0407  0.0
H  H10  1  0.44719237  0.39529155  0.22312170  1  0.096456  0.000968  0.103639  0.112984  0.000739  1.014919  0.0
H  H11  1  0.44719155  0.10470904  0.77688252  1  0.096319  0.000968  0.103632  0.112959  0.000739  1.014842  0.0
H  H12  1  0.55280427  0.60470176  0.77687501  1  0.096428  0.000968  0.103638  0.112974  0.00074  1.014841  0.0
H  H13  1  0.55282262  0.89529036  0.22311898  1  0.096258  0.000968  0.103661  0.112977  0.000739  1.014903  0.0
H  H14  1  0.47193095  0.19375341  0.24516420  1  0.095036  0.000312  0.107901  0.117885  0.000186  1.002968  0.0
H  H15  1  0.47192637  0.30624700  0.75483841  1  0.095042  0.000312  0.107898  0.117831  0.000186  1.003028  0.0
H  H16  1  0.52807299  0.80624153  0.75483523  1  0.094462  0.000312  0.107927  0.117901  0.000186  1.003015  0.0
H  H17  1  0.52806881  0.69375133  0.24516015  1  0.095005  0.000312  0.107868  0.117827  0.000186  1.003053  0.0
H  H18  1  0.19675458  0.13615374  0.52716845  1  0.15034  0.002979  0.129998  0.111776  0.001154  0.99784  0.002
H  H19  1  0.19678104  0.36382453  0.47281823  1  0.150293  0.002979  0.12994  0.11167  0.001154  0.997965  0.002
H  H20  1  0.80324644  0.86384294  0.47282787  1  0.150358  0.002979  0.129998  0.111745  0.001155  0.997901  0.002
H  H21  1  0.80322436  0.63616263  0.52717707  1  0.150135  0.002979  0.129966  0.111699  0.001154  0.997971  0.002
H  H22  1  0.82444138  0.13647821  0.52717797  1  0.130734  0.003014  0.130827  0.113848  0.001175  0.991394  0.002
H  H23  1  0.82446785  0.36350600  0.47281217  1  0.13106  0.003013  0.130859  0.113756  0.001175  0.991496  0.002
H  H24  1  0.17555964  0.86351903  0.47281813  1  0.13073  0.003014  0.130834  0.113811  0.001175  0.991505  0.002
H  H25  1  0.17553901  0.63648784  0.52718576  1  0.130978  0.003013  0.130844  0.113806  0.001175  0.991507  0.002
H  H26  1  0.82404113  0.12228104  0.31869722  1  0.124289  0.00276  0.135276  0.121231  0.001097  0.968284  0.002
H  H27  1  0.82405580  0.37772657  0.68130385  1  0.12428  0.002761  0.1353  0.121209  0.001097  0.968321  0.002
H  H28  1  0.17596135  0.87771842  0.68130089  1  0.124304  0.002761  0.135278  0.121226  0.001098  0.968274  0.002
H  H29  1  0.17594522  0.62227507  0.31869772  1  0.124286  0.002761  0.13529  0.121222  0.001097  0.968341  0.002
H  H30  1  0.19771450  0.12243055  0.31880654  1  0.159742  0.002703  0.134648  0.120281  0.001084  0.972085  0.002
H  H31  1  0.19773064  0.37757499  0.68119385  1  0.160028  0.002702  0.134686  0.120347  0.001084  0.972073  0.002
H  H32  1  0.80229091  0.87756557  0.68119001  1  0.159475  0.002702  0.134651  0.120335  0.001084  0.972101  0.002
H  H33  1  0.80227184  0.62242721  0.31880798  1  0.159868  0.002702  0.134661  0.120323  0.001084  0.972135  0.002
H  H34  1  0.08457953  0.34196568  0.10283180  1  0.165803  0.002964  0.134891  0.119499  0.001187  0.972795  0.002
H  H35  1  0.08458501  0.15806751  0.89718183  1  0.1659  0.002963  0.13488  0.119455  0.001187  0.972634  0.002
H  H36  1  0.91541711  0.65804372  0.89717584  1  0.165874  0.002964  0.134861  0.119438  0.001187  0.972563  0.002
H  H37  1  0.91539410  0.84194868  0.10282264  1  0.166125  0.002964  0.134856  0.119366  0.001187  0.972608  0.002
H  H38  1  0.71187043  0.33977288  0.10462446  1  0.161892  0.002739  0.13008  0.106313  0.001031  0.993634  0.002
H  H39  1  0.71187732  0.16025779  0.89539552  1  0.160734  0.002743  0.129995  0.105957  0.001031  0.993626  0.002
H  H40  1  0.28812621  0.66024093  0.89538769  1  0.160657  0.002742  0.130077  0.106288  0.001031  0.993639  0.002
H  H41  1  0.28810325  0.83975832  0.10461379  1  0.160533  0.002742  0.130109  0.10632  0.001031  0.993563  0.002
H  H42  1  0.40719938  0.35510825  0.96887530  1  0.650666  -0.000109  0.278038  0.373097  8e-06  0.977848  0.0
H  H43  1  0.40719549  0.14490057  0.03112653  1  0.650655  -0.000109  0.278027  0.373236  7e-06  0.977635  0.0
H  H44  1  0.59279725  0.64489566  0.03112489  1  0.650684  -0.000109  0.278031  0.37315  7e-06  0.977774  0.0
H  H45  1  0.59280992  0.85509950  0.96886894  1  0.650658  -0.000109  0.278057  0.37319  7e-06  0.977692  0.0
H  H46  1  0.47056004  0.39715745  0.05530608  1  0.587974  0.00118  0.320061  0.394089  0.0009  0.887095  0.001
H  H47  1  0.47054916  0.10285650  0.94469309  1  0.587688  0.001183  0.320024  0.394066  0.000901  0.88726  0.001
H  H48  1  0.52943367  0.60284928  0.94469348  1  0.587555  0.001182  0.32004  0.394133  0.0009  0.887022  0.001
H  H49  1  0.52943433  0.89714810  0.05529961  1  0.587891  0.001181  0.319997  0.394017  0.0009  0.887329  0.001
C  C50  1  0.48659270  0.49291615  0.36713835  1  1.516827  -0.004714  0.189418  0.537351  -0.00725  4.203876  -0.008
C  C51  1  0.48659686  0.00708134  0.63286383  1  1.516025  -0.004716  0.189447  0.537278  -0.00725  4.203679  -0.008
C  C52  1  0.51340832  0.50707827  0.63285888  1  1.516285  -0.004717  0.189518  0.537556  -0.007251  4.203699  -0.008
C  C53  1  0.51341292  0.99291751  0.36713693  1  1.515996  -0.004717  0.189429  0.537192  -0.00725  4.203849  -0.008
C  C54  1  0.48224410  0.41009275  0.33355544  1  -0.066356  0.006449  -0.022301  -0.028442  0.003955  4.001256  0.005
C  C55  1  0.48224236  0.08990592  0.66644534  1  -0.066299  0.006449  -0.022333  -0.028571  0.003955  4.001246  0.005
C  C56  1  0.51775400  0.58990114  0.66644007  1  -0.066543  0.006449  -0.022374  -0.028701  0.003956  4.001355  0.005
C  C57  1  0.51776596  0.91009461  0.33355571  1  -0.066112  0.006448  -0.022327  -0.028521  0.003955  4.001142  0.005
C  C58  1  0.49662040  0.37468833  0.37819115  1  -0.009111  -0.000842  -0.076344  -0.109518  -0.001504  3.905621  0.0
C  C59  1  0.49660952  0.12530908  0.62181048  1  -0.009239  -0.000842  -0.076411  -0.109447  -0.001504  3.905763  0.0
C  C60  1  0.50338062  0.62530777  0.62180589  1  -0.008824  -0.000843  -0.07638  -0.109372  -0.001504  3.905655  0.0
C  C61  1  0.50339296  0.87469034  0.37819006  1  -0.009231  -0.000843  -0.076419  -0.109399  -0.001505  3.905617  0.0
C  C62  1  0.46134511  0.36757239  0.25756185  1  0.067714  -0.001573  -0.07615  -0.098921  -0.002089  3.927793  -0.001
C  C63  1  0.46134105  0.13242698  0.74244079  1  0.06775  -0.001574  -0.076101  -0.098701  -0.00209  3.927304  -0.001
C  C64  1  0.53865445  0.63242260  0.74243466  1  0.067604  -0.001573  -0.076071  -0.098668  -0.00209  3.927396  -0.001
C  C65  1  0.53866874  0.86757299  0.25756049  1  0.067639  -0.001574  -0.076118  -0.098777  -0.00209  3.927375  -0.001
C  C66  1  0.50653690  0.26037004  0.39622899  1  1.522521  0.000469  0.209914  0.576288  -0.000151  4.217489  0.003
C  C67  1  0.50652154  0.23962676  0.60377085  1  1.522753  0.000471  0.210069  0.576528  -0.000149  4.217271  0.003
C  C68  1  0.49347143  0.73962605  0.60376950  1  1.522684  0.00047  0.209876  0.576328  -0.000149  4.217331  0.003
C  C69  1  0.49348094  0.76037043  0.39622816  1  1.522729  0.000471  0.210033  0.576586  -0.000149  4.217233  0.003
C  C70  1  0.49296856  0.29675774  0.34657942  1  -0.118078  0.011792  -0.027036  -0.054666  0.006911  3.995436  0.009
C  C71  1  0.49295642  0.20323972  0.65342126  1  -0.117823  0.011796  -0.027039  -0.05482  0.006914  3.995485  0.009
C  C72  1  0.50703538  0.70323670  0.65341683  1  -0.11813  0.011793  -0.027023  -0.054762  0.006912  3.995341  0.009
C  C73  1  0.50704606  0.79675913  0.34657950  1  -0.117841  0.011796  -0.027022  -0.05487  0.006914  3.995492  0.009
C  C74  1  0.47409596  0.25434839  0.27009442  1  -0.018661  -0.001586  -0.071932  -0.091537  -0.002343  3.911702  -0.001
C  C75  1  0.47409026  0.24565086  0.72990910  1  -0.018642  -0.001587  -0.071931  -0.091437  -0.002344  3.911864  -0.001
C  C76  1  0.52590506  0.74564772  0.72990262  1  -0.018006  -0.001588  -0.071914  -0.091469  -0.002344  3.911733  -0.001
C  C77  1  0.52590930  0.75434798  0.27009214  1  -0.018633  -0.001587  -0.071895  -0.091467  -0.002344  3.911832  -0.001
C  C78  1  0.45657269  0.28973254  0.22549615  1  -0.094934  0.008256  -0.0227  -0.042538  0.004768  3.988866  0.006
C  C79  1  0.45656883  0.21026745  0.77450532  1  -0.094966  0.008256  -0.022776  -0.042726  0.004768  3.989019  0.006
C  C80  1  0.54342687  0.71026133  0.77450033  1  -0.09468  0.008256  -0.022847  -0.042859  0.004768  3.989155  0.006
C  C81  1  0.54343657  0.78973252  0.22549547  1  -0.094929  0.008258  -0.022757  -0.042605  0.004769  3.988813  0.006
C  C82  1  0.43151584  0.24589987  0.14358236  1  1.524695  -0.000771  0.205838  0.570432  -0.001576  4.199861  -0.002
C  C83  1  0.43152260  0.25410197  0.85642200  1  1.524774  -0.000773  0.205751  0.570286  -0.001579  4.200006  -0.002
C  C84  1  0.56848226  0.75409286  0.85641506  1  1.524906  -0.000774  0.20587  0.570638  -0.001578  4.199961  -0.002
C  C85  1  0.56848573  0.74589970  0.14357812  1  1.524832  -0.000773  0.205705  0.570249  -0.001578  4.200066  -0.002
C  C86  1  0.11234232  0.13344509  0.48091691  1  0.539814  -0.001759  0.061985  0.054418  -0.003038  3.881881  0.0
C  C87  1  0.11237332  0.36653883  0.51907557  1  0.538912  -0.001758  0.062058  0.054442  -0.00304  3.881822  0.0
C  C88  1  0.88765431  0.86655211  0.51908161  1  0.539769  -0.00176  0.06198  0.054429  -0.003039  3.881949  0.0
C  C89  1  0.88763354  0.63345167  0.48092128  1  0.539325  -0.001759  0.062077  0.05444  -0.003039  3.881827  0.0
C  C90  1  0.90919244  0.13351554  0.48090328  1  0.444093  -0.001698  0.062246  0.055117  -0.003057  3.880124  0.0
C  C91  1  0.90921467  0.36647464  0.51909040  1  0.444651  -0.001697  0.062505  0.055746  -0.003057  3.87929  0.0
C  C92  1  0.09080858  0.86648281  0.51909383  1  0.444051  -0.001697  0.062284  0.055149  -0.003056  3.879984  0.0
C  C93  1  0.09079073  0.63351920  0.48090754  1  0.444394  -0.001698  0.062473  0.055605  -0.003058  3.879475  0.0
C  C94  1  0.90919848  0.12552402  0.36504987  1  0.462305  -0.002676  0.062802  0.048382  -0.004087  3.891341  -0.001
C  C95  1  0.90921594  0.37447898  0.63494882  1  0.462732  -0.002673  0.062775  0.048649  -0.004083  3.891243  -0.001
C  C96  1  0.09080546  0.87447545  0.63494727  1  0.462383  -0.002674  0.062767  0.048434  -0.004084  3.891534  -0.001
C  C97  1  0.09078800  0.62552043  0.36505172  1  0.462725  -0.002676  0.062773  0.048493  -0.004085  3.891412  -0.001
C  C98  1  0.11252806  0.12554234  0.36509227  1  0.531617  -0.002793  0.06232  0.048665  -0.004171  3.891238  -0.001
C  C99  1  0.11254991  0.37445609  0.63490552  1  0.53071  -0.002794  0.0622  0.048293  -0.004174  3.891151  -0.001
C  C100  1  0.88747150  0.87445486  0.63490674  1  0.531434  -0.002795  0.06227  0.04845  -0.004174  3.891138  -0.001
C  C101  1  0.88745403  0.62554110  0.36509397  1  0.530897  -0.002793  0.062175  0.048377  -0.004173  3.891303  -0.001
C  C102  1  0.99917498  0.30109574  0.05725955  1  0.42555  -0.002039  0.070501  0.065951  -0.0034  3.877319  0.0
C  C103  1  0.99917606  0.19893428  0.94275688  1  0.425895  -0.002041  0.0704  0.065749  -0.003403  3.877364  0.0
C  C104  1  0.00082019  0.69891643  0.94274988  1  0.425748  -0.00204  0.070424  0.065957  -0.0034  3.877127  0.0
C  C105  1  0.00080742  0.80107851  0.05724893  1  0.425417  -0.002041  0.070462  0.066108  -0.003402  3.877224  0.0
C  C106  1  0.79617522  0.30044826  0.05759295  1  0.525062  -0.002136  0.06037  0.041846  -0.00352  3.916177  0.0
C  C107  1  0.79618359  0.19958453  0.94242632  1  0.526745  -0.002138  0.060382  0.04232  -0.00352  3.916261  0.0
C  C108  1  0.20381411  0.69956447  0.94241722  1  0.526609  -0.00214  0.060262  0.041628  -0.003521  3.916607  0.0
C  C109  1  0.20380428  0.80043212  0.05758373  1  0.526893  -0.00214  0.060252  0.041628  -0.003521  3.916609  0.0
N  N110  1  0.21405705  0.13034134  0.42337626  1  -1.17604  0.053235  -0.306893  -0.171212  0.031133  3.578655  0.049
N  N111  1  0.21408644  0.36965180  0.57661879  1  -1.175249  0.053231  -0.30688  -0.171085  0.031133  3.578842  0.049
N  N112  1  0.78594105  0.86965645  0.57662107  1  -1.175541  0.053239  -0.306806  -0.171008  0.031136  3.578742  0.049
N  N113  1  0.78591750  0.63034204  0.42337963  1  -1.17536  0.05323  -0.306864  -0.171095  0.03113  3.578782  0.049
N  N114  1  0.80764880  0.13037513  0.42332282  1  -1.189217  0.053882  -0.306177  -0.168739  0.031514  3.578051  0.05
N  N115  1  0.80766650  0.36962310  0.57667636  1  -1.189765  0.053876  -0.306376  -0.169288  0.031512  3.578041  0.05
N  N116  1  0.19235222  0.86962485  0.57667701  1  -1.189227  0.053877  -0.306184  -0.168737  0.031511  3.578174  0.05
N  N117  1  0.19234036  0.63037520  0.42332365  1  -1.189606  0.053878  -0.306352  -0.16914  0.031512  3.578152  0.05
N  N118  1  0.09973473  0.25001591  0.00000702  1  -1.209485  0.059699  -0.305948  -0.148727  0.035041  3.54115  0.055
N  N119  1  0.90025281  0.74999565  0.99999881  1  -1.209814  0.059698  -0.305824  -0.148674  0.03504  3.541067  0.055
N  N120  1  0.69450695  0.25001171  0.00000960  1  -1.170091  0.053335  -0.312233  -0.194874  0.031141  3.61317  0.05
N  N121  1  0.30548351  0.74999977  0.00000060  1  -1.17008  0.053337  -0.312154  -0.194528  0.031141  3.613387  0.05
O  O122  1  0.48883796  0.53173674  0.43709304  1  -1.120413  0.093218  -0.306077  -0.522142  0.051444  2.229611  0.084
O  O123  1  0.48885468  0.96826362  0.56290986  1  -1.120474  0.09321  -0.306011  -0.522029  0.051438  2.229503  0.084
O  O124  1  0.51116160  0.46825939  0.56290255  1  -1.120646  0.093224  -0.306121  -0.522222  0.051444  2.229536  0.084
O  O125  1  0.51115803  0.03173635  0.43709093  1  -1.120365  0.093202  -0.306076  -0.522044  0.051435  2.229609  0.084
O  O126  1  0.48734785  0.52545542  0.32603592  1  -1.101056  0.112313  -0.318674  -0.533422  0.061822  2.159534  0.101
O  O127  1  0.48735561  0.97454104  0.67396614  1  -1.100367  0.112314  -0.318754  -0.533445  0.061822  2.159472  0.101
O  O128  1  0.51264733  0.47454011  0.67396231  1  -1.100568  0.112311  -0.318705  -0.533494  0.061822  2.159453  0.101
O  O129  1  0.51265272  0.02545782  0.32603414  1  -1.100324  0.112315  -0.318722  -0.53342  0.061822  2.159447  0.101
O  O130  1  0.50849510  0.18903156  0.36497767  1  -1.091166  0.082478  -0.313534  -0.554071  0.045577  2.385164  0.076
O  O131  1  0.50853284  0.31095861  0.63501468  1  -1.091608  0.082464  -0.31359  -0.554084  0.045567  2.385311  0.076
O  O132  1  0.49149861  0.81096122  0.63501684  1  -1.091086  0.082467  -0.313465  -0.553986  0.045569  2.385254  0.076
O  O133  1  0.49147403  0.68903859  0.36498385  1  -1.091838  0.082459  -0.313594  -0.554174  0.045566  2.385386  0.076
O  O134  1  0.51475025  0.30210771  0.46465572  1  -1.195102  0.034252  -0.321414  -0.593947  0.019847  2.493113  0.03
O  O135  1  0.51466832  0.19788015  0.53533749  1  -1.194521  0.034265  -0.321474  -0.59409  0.019854  2.492743  0.03
O  O136  1  0.48527269  0.69788506  0.53533927  1  -1.195241  0.03426  -0.321379  -0.593995  0.019852  2.492958  0.03
O  O137  1  0.48532686  0.80211707  0.46466007  1  -1.194401  0.034267  -0.321435  -0.594028  0.019855  2.492716  0.03
O  O138  1  0.39961037  0.28554292  0.11021471  1  -1.15863  0.079259  -0.325686  -0.583019  0.043898  2.394999  0.074
O  O139  1  0.39962237  0.21446196  0.88979165  1  -1.158646  0.079258  -0.325686  -0.582995  0.043899  2.394954  0.074
O  O140  1  0.60036873  0.71445369  0.88978598  1  -1.158756  0.079254  -0.325634  -0.583036  0.043897  2.394964  0.074
O  O141  1  0.60037134  0.78554247  0.11021122  1  -1.158796  0.07926  -0.325621  -0.582943  0.0439  2.395014  0.074
O  O142  1  0.44313551  0.17558978  0.11328926  1  -1.1393  -0.000272  -0.325731  -0.53633  -0.001408  2.125529  0.0
O  O143  1  0.44314284  0.32441257  0.88671189  1  -1.139372  -0.000271  -0.325658  -0.536171  -0.001407  2.12554  0.0
O  O144  1  0.55687865  0.82440745  0.88670732  1  -1.139474  -0.000271  -0.325762  -0.536412  -0.001407  2.125546  0.0
O  O145  1  0.55686548  0.67558797  0.11328868  1  -1.139303  -0.000271  -0.325667  -0.5362  -0.001407  2.125527  0.0
O  O146  1  0.37501120  0.36287037  0.02160109  1  -1.202434  0.072425  -0.56746  -0.750695  0.040366  2.111008  0.062
O  O147  1  0.37500820  0.13714541  0.97840310  1  -1.202106  0.072423  -0.567431  -0.750794  0.040367  2.111076  0.062
O  O148  1  0.62497813  0.63713521  0.97839988  1  -1.202113  0.072427  -0.567452  -0.750813  0.040367  2.11086  0.062
O  O149  1  0.62498552  0.86286022  0.02159496  1  -1.20235  0.072431  -0.567447  -0.7507  0.040369  2.11107  0.062
