# generated using pymatgen
data_ZnH3C8NO4
_symmetry_space_group_name_H-M   'P 1'
_cell_length_a   8.15769672
_cell_length_b   9.32616535
_cell_length_c   13.16182403
_cell_angle_alpha   89.99887554
_cell_angle_beta   102.97473931
_cell_angle_gamma   90.00280418
_symmetry_Int_Tables_number   1
_chemical_formula_structural   ZnH3C8NO4
_chemical_formula_sum   'Zn2 H6 C16 N2 O8'
_cell_volume   975.78657635
_cell_formula_units_Z   2
loop_
 _symmetry_equiv_pos_site_id
 _symmetry_equiv_pos_as_xyz
  1  'x, y, z'
loop_
 _atom_site_type_symbol
 _atom_site_label
 _atom_site_symmetry_multiplicity
 _atom_site_fract_x
 _atom_site_fract_y
 _atom_site_fract_z
 _atom_site_occupancy
 _atom_site_pbe_bader_charge
 _atom_site_pbe_bader_spin_density
 _atom_site_pbe_cm5_charge
 _atom_site_pbe_ddec_charge
 _atom_site_pbe_ddec_spin_density
 _atom_site_pbe_ddec_sum_bond_order
 _atom_site_pbe_magmom
Zn  Zn0  1  0.33632890  0.49999309  0.48466724  1  1.278433  0  0.682163  0.841545  0  2.426688  0
Zn  Zn1  1  0.66364580  0.50000621  0.51532872  1  1.274777  0  0.682161  0.841633  0  2.426662  0
H  H2  1  0.71651672  0.50000083  0.19693126  1  0.057742  0  0.106974  0.114586  0  0.999061  0
H  H3  1  0.28349487  0.49999846  0.80307400  1  0.057633  0  0.106982  0.114657  0  0.999188  0
H  H4  1  0.17782444  0.49999839  0.14826805  1  0.08639  0  0.102832  0.106684  0  1.010814  0
H  H5  1  0.82218260  0.49999876  0.85172760  1  0.086276  0  0.102851  0.10673  0  1.010803  0
H  H6  1  0.85082103  0.50000576  0.04445054  1  0.075252  0  0.10371  0.104481  0  1.00358  0
H  H7  1  0.14919242  0.50000212  0.95554732  1  0.075447  0  0.103733  0.104566  0  1.003599  0
C  C8  1  0.50000222  0.77971161  0.50000463  1  1.70385  0  0.230204  0.673425  0  4.20281  0
C  C9  1  0.28823243  0.49999801  0.11462551  1  -0.015795  0  -0.086139  -0.096143  0  3.996939  0
C  C10  1  0.40669118  0.49999828  0.85659270  1  -0.025504  0  -0.07294  -0.126305  0  3.914401  0
C  C11  1  0.59330363  0.50000316  0.14340543  1  -0.025666  0  -0.072882  -0.126083  0  3.91463  0
C  C12  1  0.41822398  0.50000138  0.96540139  1  -0.032202  0  -0.001321  0.07992  0  3.995657  0
C  C13  1  0.58179131  0.50000328  0.03460352  1  0.018259  0  -0.001261  0.079959  0  3.995877  0
C  C14  1  0.50000028  0.93492224  0.50000646  1  -0.222906  0  -0.020124  -0.108146  0  3.915725  0
C  C15  1  0.50000178  0.06508242  0.50000386  1  0.01954  0  -0.019996  -0.108035  0  3.915838  0
C  C16  1  0.49999582  0.22028554  0.50000222  1  1.704094  0  0.230257  0.673596  0  4.202785  0
C  C17  1  0.53515014  0.50000096  0.70161502  1  1.516379  0  0.220877  0.60437  0  4.135642  0
C  C18  1  0.46484731  0.50000155  0.29838492  1  1.516624  0  0.220907  0.604398  0  4.135751  0
C  C19  1  0.44986040  0.50000060  0.18324197  1  0.056615  0  -0.016216  -0.029898  0  3.975994  0
C  C20  1  0.55015054  0.49999977  0.81675562  1  0.056657  0  -0.016239  -0.02976  0  3.975944  0
C  C21  1  0.72683878  0.50000129  0.99154563  1  -0.088739  0  -0.084621  -0.128464  0  3.989996  0
C  C22  1  0.27316972  0.50000016  0.00845246  1  -0.088627  0  -0.084593  -0.128564  0  3.990093  0
C  C23  1  0.71177368  0.49999915  0.88537384  1  -0.015414  0  -0.08618  -0.096376  0  3.997212  0
N  N24  1  0.93838538  0.50000149  0.51110558  1  -0.032717  0  0.092317  0.131516  0  2.926424  0
N  N25  1  0.06160554  0.49999352  0.48887615  1  0.098663  0  0.092352  0.131636  0  2.926549  0
O  O26  1  0.35692003  0.71882620  0.48755035  1  -1.14298  0  -0.309924  -0.535019  0  2.241317  0
O  O27  1  0.64306672  0.28117845  0.51244082  1  -1.143237  0  -0.310053  -0.535107  0  2.241396  0
O  O28  1  0.64307842  0.71883529  0.51245599  1  -1.143011  0  -0.310035  -0.53509  0  2.241357  0
O  O29  1  0.35691682  0.28115650  0.48756196  1  -1.142927  0  -0.309998  -0.535161  0  2.241254  0
O  O30  1  0.38705448  0.50000068  0.64304199  1  -1.142836  0  -0.32176  -0.562555  0  2.332609  0
O  O31  1  0.61294065  0.50001471  0.35695998  1  -1.142773  0  -0.32179  -0.562602  0  2.332658  0
O  O32  1  0.67171586  0.49999899  0.66923236  1  -1.138479  0  -0.316113  -0.535217  0  2.302018  0
O  O33  1  0.32828139  0.49998851  0.33076527  1  -1.13882  0  -0.316136  -0.535177  0  2.302038  0
