# generated using pymatgen
data_CoH20(C7O4)2
_symmetry_space_group_name_H-M   'P 1'
_cell_length_a   5.25612165
_cell_length_b   10.14647516
_cell_length_c   15.18757220
_cell_angle_alpha   101.17792667
_cell_angle_beta   99.96869238
_cell_angle_gamma   89.99426335
_symmetry_Int_Tables_number   1
_chemical_formula_structural   CoH20(C7O4)2
_chemical_formula_sum   'Co2 H40 C28 O16'
_cell_volume   782.13893467
_cell_formula_units_Z   2
loop_
 _symmetry_equiv_pos_site_id
 _symmetry_equiv_pos_as_xyz
  1  'x, y, z'
loop_
 _atom_site_type_symbol
 _atom_site_label
 _atom_site_symmetry_multiplicity
 _atom_site_fract_x
 _atom_site_fract_y
 _atom_site_fract_z
 _atom_site_occupancy
 _atom_site_hle17_ddec_charge
 _atom_site_hle17_ddec_spin_density
 _atom_site_hle17_ddec_sum_bond_order
 _atom_site_hle17_magmom
 _atom_site_hse06_10hf_ddec_charge
 _atom_site_hse06_10hf_ddec_spin_density
 _atom_site_hse06_10hf_ddec_sum_bond_order
 _atom_site_hse06_10hf_magmom
 _atom_site_hse06_ddec_charge
 _atom_site_hse06_ddec_spin_density
 _atom_site_hse06_ddec_sum_bond_order
 _atom_site_hse06_magmom
 _atom_site_pbe_cm5_charge
 _atom_site_pbe_ddec_charge
 _atom_site_pbe_ddec_spin_density
 _atom_site_pbe_ddec_sum_bond_order
 _atom_site_pbe_magmom
Co  Co0  1  0.21139389  0.74444574  0.99737666  1  1.080001  2.875803  1.736386  2.594  1.039029  2.87083  2.137361  2.668  1.120048  2.911214  2.066596  2.738  0.633544  0.964912  2.831697  2.203487  2.601
Co  Co1  1  0.78583532  0.24438780  0.99736633  1  1.080496  -2.875709  1.736574  -2.594  1.039616  -2.870723  2.137713  -2.668  1.120592  -2.911132  2.066958  -2.738  0.633682  0.965528  -2.831577  2.203805  -2.601
H  H2  1  0.87893882  0.80410396  0.10558907  1  0.427252  0.000599  0.87414  0.001  0.398259  0.000882  0.936586  0.002  0.409707  0.000605  0.920153  0.002  0.296268  0.389908  0.001148  0.94843  0.002
H  H3  1  0.75428290  0.70731090  0.89726773  1  0.430181  8e-06  0.873541  0.0  0.400489  0.000332  0.936812  0.001  0.412388  9.5e-05  0.919801  0.001  0.295956  0.391718  0.00057  0.94922  0.002
H  H4  1  0.14366237  0.20746442  0.89752142  1  0.431193  -8e-06  0.872367  0.0  0.40151  -0.000328  0.935531  -0.001  0.41342  -9.1e-05  0.918502  -0.001  0.296179  0.39273  -0.000565  0.947948  -0.002
H  H5  1  0.22630995  0.30405346  0.10560650  1  0.426462  -0.000598  0.874905  -0.001  0.397729  -0.000879  0.936776  -0.002  0.409126  -0.000603  0.920443  -0.002  0.296271  0.389394  -0.001145  0.948595  -0.002
H  H6  1  0.95219234  0.93885310  0.07874506  1  0.431593  -0.000495  0.864361  0.0  0.404664  -0.000156  0.922266  0.0  0.416503  -0.000132  0.905515  0.0  0.296463  0.395925  -0.000196  0.934524  0.0
H  H7  1  0.85948162  0.56493447  0.91295834  1  0.42713  -0.000297  0.877521  0.0  0.399333  1.4e-05  0.93611  0.001  0.411203  1.1e-05  0.919453  0.0  0.29311  0.390584  -3e-06  0.948265  0.001
H  H8  1  0.05383346  0.06501128  0.91306802  1  0.427775  0.000298  0.876622  0.0  0.399546  -1.4e-05  0.936011  -0.001  0.411466  -1.1e-05  0.919257  0.0  0.29284  0.390757  3e-06  0.948229  -0.001
H  H9  1  0.12630506  0.43878838  0.07870370  1  0.431301  0.000491  0.86445  0.0  0.40481  0.000152  0.921948  0.0  0.416641  0.000129  0.905201  0.0  0.296527  0.396079  0.000192  0.934192  0.0
H  H10  1  0.47403014  0.56386614  0.23638169  1  0.118443  -0.00015  0.938174  0.0  0.130869  -7.9e-05  0.998607  0.0  0.133971  -6.6e-05  0.997122  0.0  0.106775  0.128487  -0.000104  0.999915  0.0
H  H11  1  0.23482790  0.93978288  0.76196139  1  0.118296  -0.000126  0.942721  0.0  0.13044  -8.9e-05  1.003208  0.0  0.133565  -7.6e-05  1.001798  0.0  0.107779  0.128031  -0.000112  1.004526  0.0
H  H12  1  0.52680405  0.43994323  0.76202453  1  0.11899  0.000126  0.94255  0.0  0.131208  8.9e-05  1.002982  0.0  0.134327  7.5e-05  1.001594  0.0  0.108299  0.128832  0.000113  1.004258  0.0
H  H13  1  0.76213693  0.06361651  0.23629395  1  0.118676  0.000151  0.939571  0.0  0.131446  8.1e-05  0.999311  0.0  0.134544  6.7e-05  0.997857  0.0  0.107341  0.129039  0.000106  1.000637  0.0
H  H14  1  0.63235477  0.45734394  0.15907222  1  0.124061  0.000187  0.959679  0.0  0.136045  0.000245  1.022485  0.0  0.138852  0.000221  1.021137  0.0  0.10629  0.134131  0.000255  1.023404  0.0
H  H15  1  0.47160716  0.04456281  0.83965926  1  0.115648  -0.000127  0.949921  0.0  0.127391  -0.00023  1.014258  0.0  0.129928  -0.000159  1.013269  0.0  0.106086  0.125736  -0.000313  1.014906  0.0
H  H16  1  0.36748493  0.54465893  0.83968730  1  0.116443  0.000125  0.949631  0.0  0.128723  0.000225  1.013383  0.0  0.131279  0.000157  1.012386  0.0  0.10642  0.127045  0.000307  1.014059  0.0
H  H17  1  0.52688930  0.95709593  0.15883748  1  0.124261  -0.000191  0.959558  0.0  0.136071  -0.000247  1.022405  0.0  0.138904  -0.000223  1.021052  0.0  0.106316  0.134151  -0.000259  1.023338  0.0
H  H18  1  0.85006874  0.72777056  0.28010798  1  0.076141  -1.1e-05  0.921816  0.0  0.094551  5e-06  0.978654  0.0  0.095365  -4e-06  0.979067  0.0  0.093982  0.093906  1.6e-05  0.978488  0.0
H  H19  1  0.56224207  0.77049931  0.72203406  1  0.076635  -3e-06  0.919715  0.0  0.096237  1e-05  0.975045  0.0  0.096902  -1e-06  0.975657  0.0  0.094188  0.095674  2.3e-05  0.974811  0.0
H  H20  1  0.16023062  0.27040866  0.72200511  1  0.07761  3e-06  0.919249  0.0  0.096639  -1.1e-05  0.974991  0.0  0.097338  0.0  0.975539  0.0  0.094656  0.096062  -2.3e-05  0.974774  0.0
H  H21  1  0.42927847  0.22731033  0.27986927  1  0.075571  1.1e-05  0.922489  0.0  0.093836  -6e-06  0.979761  0.0  0.094646  3e-06  0.980145  0.0  0.093503  0.093188  -1.7e-05  0.979614  0.0
H  H22  1  0.00524869  0.63405671  0.19472292  1  0.073057  -9.3e-05  0.945992  0.0  0.089908  -9.2e-05  1.008109  0.0  0.090656  -0.000102  1.008932  0.0  0.09312  0.089262  -8e-05  1.007722  0.0
H  H23  1  0.80353403  0.86403922  0.80747269  1  0.079857  -6.5e-05  0.954819  0.0  0.097081  -7.7e-05  1.015225  0.0  0.098195  -9.1e-05  1.01581  0.0  0.095012  0.096099  -6.1e-05  1.015108  0.0
H  H24  1  0.00368867  0.36366049  0.80734638  1  0.079151  6.5e-05  0.953792  0.0  0.09632  7.8e-05  1.014125  0.0  0.097417  9.2e-05  1.014719  0.0  0.094467  0.095341  6.3e-05  1.014004  0.0
H  H25  1  0.18902599  0.13329905  0.19451165  1  0.074013  9.4e-05  0.945365  0.0  0.091485  9.2e-05  1.006657  0.0  0.092224  0.000101  1.007476  0.0  0.093701  0.090813  8e-05  1.006312  0.0
H  H26  1  0.86337921  0.52857070  0.35696307  1  0.045522  -1.1e-05  0.949279  0.0  0.060369  -6e-06  1.014635  0.0  0.059839  -5e-06  1.015846  0.0  0.094925  0.060663  -7e-06  1.013823  0.0
H  H27  1  0.50623917  0.96811040  0.64343669  1  0.046346  -7e-06  0.950043  0.0  0.060124  -3e-06  1.016276  0.0  0.059529  -2e-06  1.017613  0.0  0.095223  0.060494  -5e-06  1.015388  0.0
H  H28  1  0.13686489  0.46791405  0.64335774  1  0.045177  8e-06  0.950434  0.0  0.059399  3e-06  1.016373  0.0  0.058836  2e-06  1.017682  0.0  0.094756  0.059769  5e-06  1.015488  0.0
H  H29  1  0.49369270  0.02806560  0.35677088  1  0.0464  1.1e-05  0.94942  0.0  0.060301  6e-06  1.015303  0.0  0.059717  5e-06  1.016613  0.0  0.095385  0.060633  7e-06  1.014462  0.0
H  H30  1  0.02209427  0.43673676  0.26985472  1  0.05552  7e-06  0.924308  0.0  0.070538  3.2e-05  0.986498  0.0  0.07146  4.7e-05  0.985104  0.0  0.098168  0.069738  1.4e-05  0.987673  0.0
H  H31  1  0.75306211  0.05954163  0.73026385  1  0.053072  -1e-06  0.925549  0.0  0.068111  1.2e-05  0.988017  0.0  0.069078  4e-05  0.986627  0.0  0.097048  0.067233  -2.3e-05  0.989217  0.0
H  H32  1  0.97680138  0.55930576  0.73017046  1  0.053267  2e-06  0.926201  0.0  0.068166  -1.1e-05  0.988782  0.0  0.069219  -3.9e-05  0.987332  0.0  0.097319  0.067258  2.3e-05  0.990015  0.0
H  H33  1  0.24712605  0.93638909  0.26991231  1  0.055257  -7e-06  0.924809  0.0  0.07017  -3.2e-05  0.986879  0.0  0.071179  -4.7e-05  0.985367  0.0  0.098068  0.069318  -1.4e-05  0.988125  0.0
H  H34  1  0.63533211  0.71270681  0.46498766  1  0.109387  0.0  0.947295  0.0  0.121046  -0.0  1.005762  0.0  0.123885  0.0  1.004801  0.0  0.104355  0.118865  -0.0  1.006829  0.0
H  H35  1  0.17011099  0.78155269  0.53580552  1  0.109866  2e-06  0.948117  0.0  0.12161  0.0  1.006455  0.0  0.124488  0.0  1.005426  0.0  0.1042  0.119406  0.0  1.007537  0.0
H  H36  1  0.36593216  0.28158796  0.53565545  1  0.10956  -0.0  0.948221  0.0  0.121261  -0.0  1.006587  0.0  0.124119  -0.0  1.005635  0.0  0.104158  0.11907  -1e-06  1.00765  0.0
H  H37  1  0.83041128  0.21282038  0.46518868  1  0.108901  -1e-06  0.947841  0.0  0.121064  0.0  1.005707  0.0  0.123943  0.0  1.004644  0.0  0.104588  0.118893  0.0  1.006761  0.0
H  H38  1  0.88358586  0.63057177  0.59481677  1  0.106047  -2e-06  0.975875  0.0  0.112267  -0.0  1.045357  0.0  0.116074  1e-06  1.042736  0.0  0.102413  0.109522  -2e-06  1.047381  0.0
H  H39  1  0.28894775  0.86399281  0.40610434  1  0.107262  -0.0  0.975808  0.0  0.113558  -0.0  1.044716  0.0  0.117346  -0.0  1.04217  0.0  0.103258  0.110862  -2e-06  1.046645  0.0
H  H40  1  0.11728677  0.36409935  0.40599155  1  0.107121  1e-06  0.974056  0.0  0.113107  1e-06  1.043634  0.0  0.116924  -0.0  1.041044  0.0  0.102967  0.110331  2e-06  1.045673  0.0
H  H41  1  0.71161479  0.13062302  0.59490366  1  0.106026  1e-06  0.976915  0.0  0.112597  0.0  1.045861  0.0  0.116408  -1e-06  1.043216  0.0  0.102242  0.109832  2e-06  1.047914  0.0
C  C42  1  0.48655150  0.63268408  0.11548582  1  0.713494  -0.005896  3.781248  -0.01  0.663333  -0.001598  4.087451  -0.004  0.699217  -0.001436  4.081608  -0.003  0.217609  0.637911  -0.00213  4.089713  -0.005
C  C43  1  0.35287262  0.87460760  0.88494628  1  0.713564  -0.005238  3.779114  -0.009  0.661151  -0.001365  4.087052  -0.003  0.697347  -0.001222  4.081016  -0.003  0.220548  0.635483  -0.001841  4.089407  -0.005
C  C44  1  0.53210149  0.37476125  0.88497375  1  0.712001  0.005208  3.780809  0.009  0.66006  0.001335  4.088475  0.003  0.696253  0.001199  4.082465  0.003  0.219897  0.634385  0.001806  4.090812  0.005
C  C45  1  0.62871237  0.13265766  0.11548203  1  0.71426  0.005879  3.78307  0.01  0.664353  0.001586  4.088302  0.004  0.700215  0.001433  4.082534  0.003  0.218616  0.638955  0.002112  4.090496  0.005
C  C46  1  0.61324704  0.56358668  0.18960078  1  -0.283145  0.001097  3.674521  0.001  -0.312979  0.00045  3.915903  0.0  -0.320468  0.000176  3.924327  0.0  -0.1653  -0.308018  0.000767  3.910908  0.001
C  C47  1  0.41782521  0.93829499  0.80992559  1  -0.276713  0.000781  3.676627  0.001  -0.305923  0.000199  3.920206  0.0  -0.31316  -2.2e-05  3.928418  0.0  -0.16281  -0.301149  0.000468  3.915369  0.0
C  C48  1  0.39178733  0.43837712  0.80998704  1  -0.278597  -0.000778  3.675893  -0.001  -0.308885  -0.0002  3.920111  0.0  -0.316108  1.7e-05  3.928245  0.0  -0.163418  -0.304129  -0.000468  3.915312  0.0
C  C49  1  0.57621809  0.06331869  0.18946825  1  -0.284128  -0.0011  3.676287  -0.001  -0.313654  -0.000453  3.916387  0.0  -0.321205  -0.000178  3.924835  0.0  -0.166091  -0.308661  -0.000769  3.911374  -0.001
C  C50  1  0.87271883  0.62576643  0.24213226  1  -0.10444  0.000686  3.696887  0.001  -0.148779  0.000663  3.96031  0.001  -0.149096  0.000458  3.972361  0.001  -0.1683  -0.148533  0.000874  3.952328  0.001
C  C51  1  0.62568064  0.87254249  0.75925866  1  -0.109622  0.00059  3.691888  0.001  -0.154994  0.000613  3.954362  0.001  -0.155384  0.000414  3.966223  0.001  -0.169581  -0.154669  0.000812  3.946469  0.001
C  C52  1  0.13347099  0.37238371  0.75921964  1  -0.10941  -0.000591  3.688948  -0.001  -0.153718  -0.000612  3.95056  -0.001  -0.154074  -0.000411  3.962425  -0.001  -0.169538  -0.153399  -0.000811  3.942669  -0.001
C  C53  1  0.36903035  0.12525508  0.24195286  1  -0.104664  -0.000682  3.696214  -0.001  -0.149702  -0.000662  3.959442  -0.001  -0.149956  -0.000454  3.971419  -0.001  -0.16815  -0.149463  -0.000873  3.951451  -0.001
C  C54  1  0.99055306  0.53800465  0.30771978  1  0.097779  9.8e-05  3.610702  0.0  0.038608  8.3e-05  3.881422  0.0  0.046284  6.2e-05  3.887214  0.0  -0.069216  0.033542  0.000105  3.877321  0.0
C  C55  1  0.68201506  0.95817055  0.69287850  1  0.094229  2.6e-05  3.61418  0.0  0.036465  2.5e-05  3.884336  0.0  0.044042  2.6e-05  3.8902  0.0  -0.070736  0.03147  1.6e-05  3.880131  0.0
C  C56  1  0.01065561  0.45796662  0.69281855  1  0.096528  -2.5e-05  3.615269  0.0  0.038162  -2.3e-05  3.885398  0.0  0.045707  -2.6e-05  3.891366  0.0  -0.069873  0.033163  -1.3e-05  3.881208  0.0
C  C57  1  0.31702018  0.03762345  0.30765935  1  0.098562  -9.9e-05  3.61097  0.0  0.040669  -8.4e-05  3.88108  0.0  0.048347  -6.4e-05  3.886817  0.0  -0.068874  0.035549  -0.000106  3.877048  0.0
C  C58  1  0.35885966  0.54555802  0.42681220  1  0.233809  3e-05  3.848451  0.0  0.22357  1.9e-05  4.110998  0.0  0.232349  1.2e-05  4.12864  0.0  0.065565  0.217383  3e-05  4.098941  0.0
C  C59  1  0.93188594  0.94893472  0.57409570  1  0.233408  1.8e-05  3.845138  0.0  0.223687  1.2e-05  4.107504  0.0  0.232407  8e-06  4.125086  0.0  0.064846  0.217482  1.8e-05  4.095576  0.0
C  C60  1  0.64235892  0.44888636  0.57398246  1  0.233037  -1.9e-05  3.845791  0.0  0.222997  -1.4e-05  4.108508  0.0  0.231799  -8e-06  4.126111  0.0  0.064484  0.216772  -2.1e-05  4.096577  0.0
C  C61  1  0.06841396  0.04557603  0.42698406  1  0.232691  -3e-05  3.85107  0.0  0.22304  -1.5e-05  4.113412  0.0  0.231891  -6e-06  4.130992  0.0  0.064971  0.216783  -2.7e-05  4.101425  0.0
C  C62  1  0.57636954  0.61798987  0.48060149  1  -0.15994  -4e-06  3.775692  0.0  -0.180708  -1e-06  4.033412  0.0  -0.183035  -2e-06  4.051497  0.0  -0.106757  -0.178963  -1e-06  4.021424  0.0
C  C63  1  0.09563635  0.87636499  0.52035838  1  -0.162146  -1.6e-05  3.776558  0.0  -0.182803  -2e-06  4.033821  0.0  -0.185096  0.0  4.051927  0.0  -0.107579  -0.181084  -5e-06  4.021855  0.0
C  C64  1  0.42481448  0.37642921  0.52025322  1  -0.161948  1.2e-05  3.776343  0.0  -0.182704  2e-06  4.034029  0.0  -0.185012  1e-06  4.05213  0.0  -0.107262  -0.180986  8e-06  4.022051  0.0
C  C65  1  0.90500234  0.11814299  0.48083287  1  -0.159055  1e-05  3.779016  0.0  -0.180277  -1e-06  4.036398  0.0  -0.182598  -1e-06  4.054477  0.0  -0.107237  -0.178532  -1e-06  4.024418  0.0
C  C66  1  0.71784946  0.57063727  0.55388416  1  -0.189874  7e-06  3.803191  0.0  -0.213416  -2e-06  4.066589  0.0  -0.216779  -1e-06  4.086032  0.0  -0.113439  -0.211138  -1e-06  4.053659  0.0
C  C67  1  0.16423708  0.92387540  0.44715112  1  -0.188414  1.1e-05  3.799776  0.0  -0.211921  -2e-06  4.062612  0.0  -0.215409  1e-06  4.082148  0.0  -0.11264  -0.209538  -2e-06  4.049552  0.0
C  C68  1  0.28310320  0.42394676  0.44702907  1  -0.187278  -3e-06  3.797761  0.0  -0.210398  2e-06  4.060456  0.0  -0.213904  -0.0  4.080013  0.0  -0.11218  -0.207966  4e-06  4.047413  0.0
C  C69  1  0.83661347  0.07073459  0.55403525  1  -0.190128  -9e-06  3.806588  0.0  -0.213976  0.0  4.069702  0.0  -0.217349  1e-06  4.089156  0.0  -0.113103  -0.211679  0.0  4.056771  0.0
O  O70  1  0.57430660  0.74315742  0.10292969  1  -0.639495  0.025329  2.038704  0.045  -0.588621  0.02041  2.2861  0.035  -0.621343  0.015877  2.27524  0.027  -0.296892  -0.562752  0.025101  2.292236  0.042
O  O71  1  0.46423745  0.76987105  0.90660170  1  -0.640342  0.037772  2.058218  0.062  -0.589348  0.027943  2.315772  0.043  -0.625553  0.021587  2.304293  0.033  -0.300139  -0.560218  0.034391  2.322331  0.053
O  O72  1  0.44269536  0.26996896  0.90665511  1  -0.638511  -0.037908  2.059011  -0.062  -0.588018  -0.028024  2.316934  -0.043  -0.624246  -0.021649  2.305429  -0.033  -0.299699  -0.558875  -0.03449  2.323533  -0.053
O  O73  1  0.52852479  0.24324063  0.10313000  1  -0.640248  -0.025249  2.038751  -0.045  -0.589202  -0.020373  2.28511  -0.035  -0.621766  -0.015851  2.274102  -0.027  -0.296963  -0.563385  -0.025056  2.291266  -0.042
O  O74  1  0.27482591  0.58147174  0.06319306  1  -0.64495  0.041457  2.001808  0.07  -0.597224  0.029985  2.252599  0.047  -0.633671  0.024015  2.240519  0.037  -0.313154  -0.568658  0.035451  2.260518  0.056
O  O75  1  0.17452641  0.92209425  0.92826021  1  -0.631077  0.026209  2.009473  0.046  -0.579284  0.020813  2.248405  0.035  -0.612781  0.016631  2.237606  0.028  -0.300737  -0.553197  0.024812  2.255249  0.042
O  O76  1  0.75358269  0.42235305  0.92832803  1  -0.630713  -0.026081  2.010082  -0.046  -0.579149  -0.020751  2.248529  -0.035  -0.612572  -0.01658  2.237764  -0.028  -0.300487  -0.553106  -0.024746  2.255336  -0.042
O  O77  1  0.78792610  0.08144064  0.06310016  1  -0.645369  -0.041503  2.000725  -0.07  -0.598023  -0.030012  2.251894  -0.047  -0.63446  -0.024032  2.239778  -0.037  -0.314232  -0.569437  -0.035484  2.259778  -0.056
O  O78  1  0.23351505  0.60068278  0.35609762  1  -0.302115  1.9e-05  2.324467  0.0  -0.22839  1.7e-05  2.561392  0.0  -0.246398  9e-06  2.564515  0.0  -0.189391  -0.215585  2.5e-05  2.558745  0.0
O  O79  1  0.87579999  0.89396792  0.64485083  1  -0.300652  -3e-06  2.317564  0.0  -0.22754  3e-06  2.553863  0.0  -0.245423  1e-06  2.556909  0.0  -0.189631  -0.214817  -3e-06  2.551289  0.0
O  O80  1  0.76891692  0.39380673  0.64473354  1  -0.302381  5e-06  2.319197  0.0  -0.22876  -4e-06  2.555561  0.0  -0.246867  -3e-06  2.558791  0.0  -0.190252  -0.215966  2e-06  2.552953  0.0
O  O81  1  0.12311375  0.10061271  0.35625545  1  -0.302182  -1.4e-05  2.323577  0.0  -0.2293  -1.2e-05  2.560559  0.0  -0.247447  -9e-06  2.563769  0.0  -0.189455  -0.216362  -1.7e-05  2.557843  0.0
O  O82  1  0.03080219  0.85560222  0.09622686  1  -0.828031  0.03043  1.929177  0.048  -0.794022  0.02541  2.140979  0.036  -0.823106  0.020578  2.103693  0.028  -0.572129  -0.769744  0.029842  2.167849  0.042
O  O83  1  0.91490311  0.65454134  0.90168152  1  -0.837014  0.03679  1.943622  0.059  -0.803124  0.030475  2.162204  0.043  -0.834361  0.024654  2.124685  0.035  -0.57842  -0.776622  0.035896  2.18898  0.051
O  O84  1  0.98743694  0.15470264  0.90189274  1  -0.839374  -0.036841  1.942882  -0.059  -0.805026  -0.030526  2.161626  -0.044  -0.836271  -0.024699  2.12392  -0.035  -0.57842  -0.778543  -0.035951  2.188647  -0.051
O  O85  1  0.06509148  0.35555007  0.09615407  1  -0.826377  -0.030464  1.930269  -0.048  -0.793145  -0.025416  2.142331  -0.036  -0.822217  -0.020585  2.105122  -0.028  -0.572301  -0.768924  -0.029846  2.169259  -0.042
