# generated using pymatgen
data_Cs2UH6C8O13
_symmetry_space_group_name_H-M   'P 1'
_cell_length_a   7.08235465
_cell_length_b   11.38993308
_cell_length_c   11.38999303
_cell_angle_alpha   108.71899920
_cell_angle_beta   90.00059275
_cell_angle_gamma   90.00019069
_symmetry_Int_Tables_number   1
_chemical_formula_structural   Cs2UH6C8O13
_chemical_formula_sum   'Cs4 U2 H12 C16 O26'
_cell_volume   870.20170716
_cell_formula_units_Z   2
loop_
 _symmetry_equiv_pos_site_id
 _symmetry_equiv_pos_as_xyz
  1  'x, y, z'
loop_
 _atom_site_type_symbol
 _atom_site_label
 _atom_site_symmetry_multiplicity
 _atom_site_fract_x
 _atom_site_fract_y
 _atom_site_fract_z
 _atom_site_occupancy
 _atom_site_hle17_bader_spin_density
 _atom_site_hle17_ddec_charge
 _atom_site_hle17_ddec_spin_density
 _atom_site_hle17_ddec_sum_bond_order
 _atom_site_hle17_magmom
 _atom_site_hse06_10hf_bader_spin_density
 _atom_site_hse06_10hf_ddec_charge
 _atom_site_hse06_10hf_ddec_spin_density
 _atom_site_hse06_10hf_ddec_sum_bond_order
 _atom_site_hse06_10hf_magmom
 _atom_site_hse06_bader_spin_density
 _atom_site_hse06_ddec_charge
 _atom_site_hse06_ddec_spin_density
 _atom_site_hse06_ddec_sum_bond_order
 _atom_site_hse06_magmom
 _atom_site_pbe_bader_spin_density
 _atom_site_pbe_cm5_charge
 _atom_site_pbe_ddec_charge
 _atom_site_pbe_ddec_spin_density
 _atom_site_pbe_ddec_sum_bond_order
 _atom_site_pbe_magmom
Cs  Cs0  1  0.02972904  0.78677692  0.28678008  1  0  0.983271  0  0.504999  0  0  0.937001  0  0.727502  0  0  0.953333  0  0.702138  0  0  0.845491  0.924715  0  0.74582  0
Cs  Cs1  1  0.97027217  0.28677845  0.78677793  1  0  0.983263  0  0.50506  0  0  0.936988  0  0.727572  0  0  0.953325  0  0.70221  0  0  0.845511  0.924686  0  0.745888  0
Cs  Cs2  1  0.99999979  0.49650669  0.49650770  1  0  0.940032  0  0.539306  0  0  0.886407  0  0.758393  0  0  0.898436  0  0.738271  0  0  0.819394  0.877454  0  0.772849  0
Cs  Cs3  1  0.99999896  0.99650680  0.99650743  1  0  0.940033  0  0.539315  0  0  0.886394  0  0.758427  0  0  0.898422  0  0.738308  0  0  0.819393  0.877435  0  0.772881  0
U  U4  1  0.50801298  0.99867689  0.49867710  1  0  2.536516  0  4.113811  0  0  2.599651  0  4.761722  0  0  2.707863  0  4.724242  0  0  2.17411  2.523192  0  4.78808  0
U  U5  1  0.49198440  0.49867249  0.99867259  1  0  2.536526  0  4.113747  0  0  2.599674  0  4.761573  0  0  2.707805  0  4.724207  0  0  2.174163  2.523199  0  4.787954  0
H  H6  1  0.09108629  0.01175009  0.59904912  1  0  0.429  0  0.8784  0  0  0.402751  0  0.936601  0  0  0.415287  0  0.918364  0  0  0.303458  0.39373  0  0.949668  0
H  H7  1  0.90890986  0.59904193  0.01174466  1  0  0.429065  0  0.878301  0  0  0.402828  0  0.936479  0  0  0.415362  0  0.918244  0  0  0.303473  0.393811  0  0.949546  0
H  H8  1  0.09108580  0.09904677  0.51174758  1  0  0.428986  0  0.878423  0  0  0.402739  0  0.936618  0  0  0.415275  0  0.918382  0  0  0.303456  0.393716  0  0.949692  0
H  H9  1  0.90891035  0.51174247  0.09904355  1  0  0.429035  0  0.87834  0  0  0.402785  0  0.936545  0  0  0.415321  0  0.918308  0  0  0.303444  0.393761  0  0.949622  0
H  H10  1  0.34842333  0.29348404  0.54574412  1  0  0.415784  0  0.88207  0  0  0.389172  0  0.939608  0  0  0.399059  0  0.924831  0  0  0.296532  0.382151  0  0.950112  0
H  H11  1  0.65157814  0.54574263  0.29348358  1  0  0.41593  0  0.881898  0  0  0.389291  0  0.93948  0  0  0.39918  0  0.924702  0  0  0.296572  0.382267  0  0.949989  0
H  H12  1  0.34842190  0.04574496  0.79348734  1  0  0.415757  0  0.882089  0  0  0.389157  0  0.939607  0  0  0.399043  0  0.924832  0  0  0.296532  0.382133  0  0.950116  0
H  H13  1  0.65157816  0.79348263  0.04574417  1  0  0.415873  0  0.881948  0  0  0.389236  0  0.939531  0  0  0.399124  0  0.924753  0  0  0.29655  0.382212  0  0.950041  0
H  H14  1  0.40186027  0.37556589  0.67910493  1  0  0.426207  0  0.849178  0  0  0.405122  0  0.902247  0  0  0.413345  0  0.889908  0  0  0.312898  0.399406  0  0.910878  0
H  H15  1  0.59813791  0.67910254  0.37556484  1  0  0.426287  0  0.849076  0  0  0.405206  0  0.90213  0  0  0.413429  0  0.889793  0  0  0.312931  0.399492  0  0.910758  0
H  H16  1  0.40186279  0.17910513  0.87556640  1  0  0.426198  0  0.849173  0  0  0.405111  0  0.90226  0  0  0.413334  0  0.889923  0  0  0.312898  0.399396  0  0.910888  0
H  H17  1  0.59813822  0.87556424  0.17910368  1  0  0.426251  0  0.849115  0  0  0.405167  0  0.902184  0  0  0.41339  0  0.889846  0  0  0.31291  0.399451  0  0.910814  0
C  C18  1  0.29180290  0.80225410  0.62217356  1  0  0.746924  0  3.954505  0  0  0.703389  0  4.246687  0  0  0.742833  0  4.230091  0  0  0.232964  0.676038  0  4.257743  0
C  C19  1  0.70819509  0.62216793  0.80225021  1  0  0.746639  0  3.954783  0  0  0.703252  0  4.246733  0  0  0.742668  0  4.230179  0  0  0.232911  0.675916  0  4.257752  0
C  C20  1  0.29180974  0.12217287  0.30225224  1  0  0.746787  0  3.954702  0  0  0.703375  0  4.246689  0  0  0.742794  0  4.230144  0  0  0.232962  0.676032  0  4.257733  0
C  C21  1  0.70819849  0.30224896  0.12216535  1  0  0.746632  0  3.954854  0  0  0.703259  0  4.246767  0  0  0.742681  0  4.230201  0  0  0.232933  0.675909  0  4.257813  0
C  C22  1  0.26475473  0.75641516  0.72608273  1  0  -0.119449  0  3.667926  0  0  -0.119029  0  3.925687  0  0  -0.121861  0  3.943368  0  0  -0.016295  -0.117353  0  3.91432  0
C  C23  1  0.73524108  0.72607134  0.75640875  1  0  -0.119339  0  3.667768  0  0  -0.118971  0  3.925481  0  0  -0.121795  0  3.943168  0  0  -0.016312  -0.117301  0  3.914112  0
C  C24  1  0.26476919  0.22607710  0.25640824  1  0  -0.119367  0  3.667715  0  0  -0.118989  0  3.925441  0  0  -0.121812  0  3.943127  0  0  -0.016323  -0.117312  0  3.914057  0
C  C25  1  0.73524532  0.25640552  0.22606622  1  0  -0.119393  0  3.667814  0  0  -0.119032  0  3.925535  0  0  -0.121859  0  3.943221  0  0  -0.016337  -0.117357  0  3.914157  0
C  C26  1  0.22635560  0.70923640  0.80527754  1  0  -0.151516  0  3.700031  0  0  -0.153483  0  3.962578  0  0  -0.157386  0  3.979498  0  0  -0.026332  -0.151142  0  3.951623  0
C  C27  1  0.77363914  0.80527520  0.70922881  1  0  -0.151545  0  3.699974  0  0  -0.1535  0  3.962519  0  0  -0.157402  0  3.979434  0  0  -0.026307  -0.151162  0  3.951571  0
C  C28  1  0.22636512  0.30527522  0.20922619  1  0  -0.151526  0  3.699917  0  0  -0.153485  0  3.962453  0  0  -0.157389  0  3.979369  0  0  -0.026298  -0.151148  0  3.951491  0
C  C29  1  0.77364410  0.20922784  0.30527216  1  0  -0.151481  0  3.699909  0  0  -0.153441  0  3.962437  0  0  -0.15734  0  3.979351  0  0  -0.026279  -0.151099  0  3.951473  0
C  C30  1  0.16577465  0.65203760  0.89513196  1  0  0.750017  0  3.940173  0  0  0.706128  0  4.232882  0  0  0.747274  0  4.21336  0  0  0.243084  0.677752  0  4.24567  0
C  C31  1  0.83422328  0.89512548  0.65203343  1  0  0.749984  0  3.940415  0  0  0.70608  0  4.233121  0  0  0.747227  0  4.213601  0  0  0.243107  0.677701  0  4.245911  0
C  C32  1  0.16577486  0.39512799  0.15203298  1  0  0.74996  0  3.940442  0  0  0.706074  0  4.233132  0  0  0.747221  0  4.213607  0  0  0.243063  0.677697  0  4.245917  0
C  C33  1  0.83422482  0.15203397  0.39512593  1  0  0.749933  0  3.940449  0  0  0.706053  0  4.233127  0  0  0.7472  0  4.213609  0  0  0.243036  0.677676  0  4.245916  0
O  O34  1  0.56727173  0.13146269  0.63146138  1  0  -0.726508  0  1.541074  0  0  -0.733721  0  1.822836  0  0  -0.754425  0  1.808913  0  0  -0.769727  -0.721645  0  1.833451  0
O  O35  1  0.43275009  0.63145748  0.13145879  1  0  -0.726506  0  1.541132  0  0  -0.733712  0  1.822855  0  0  -0.754389  0  1.808938  0  0  -0.769732  -0.721636  0  1.833483  0
O  O36  1  0.46596475  0.86350637  0.36350761  1  0  -0.753986  0  1.600051  0  0  -0.762951  0  1.902585  0  0  -0.782922  0  1.88504  0  0  -0.789433  -0.751094  0  1.915448  0
O  O37  1  0.53401273  0.36349846  0.86350048  1  0  -0.753977  0  1.600068  0  0  -0.762912  0  1.902558  0  0  -0.782867  0  1.885037  0  0  -0.789452  -0.751053  0  1.915415  0
O  O38  1  0.38795923  0.90369602  0.64411254  1  0  -0.688386  0  2.043675  0  0  -0.655719  0  2.296875  0  0  -0.691541  0  2.289198  0  0  -0.36058  -0.629764  0  2.300777  0
O  O39  1  0.61204294  0.64410830  0.90369041  1  0  -0.688338  0  2.043778  0  0  -0.655683  0  2.296871  0  0  -0.6915  0  2.289252  0  0  -0.360589  -0.629734  0  2.300772  0
O  O40  1  0.38796227  0.14411369  0.40369496  1  0  -0.688328  0  2.043711  0  0  -0.6557  0  2.296861  0  0  -0.691514  0  2.289195  0  0  -0.360559  -0.629755  0  2.300772  0
O  O41  1  0.61204448  0.40368856  0.14410560  1  0  -0.688238  0  2.043704  0  0  -0.655586  0  2.296781  0  0  -0.691404  0  2.289157  0  0  -0.360562  -0.629636  0  2.300688  0
O  O42  1  0.21800724  0.74100581  0.52154733  1  0  -0.639058  0  1.900595  0  0  -0.599143  0  2.120096  0  0  -0.62554  0  2.111504  0  0  -0.392151  -0.580053  0  2.125387  0
O  O43  1  0.78198899  0.52153924  0.74100920  1  0  -0.638941  0  1.900608  0  0  -0.599072  0  2.120026  0  0  -0.625471  0  2.111476  0  0  -0.392097  -0.579987  0  2.125306  0
O  O44  1  0.21801006  0.02154571  0.24100773  1  0  -0.639004  0  1.900627  0  0  -0.599138  0  2.120082  0  0  -0.625527  0  2.111508  0  0  -0.39214  -0.580047  0  2.125368  0
O  O45  1  0.78199216  0.24100936  0.02153802  1  0  -0.638977  0  1.90072  0  0  -0.599112  0  2.120125  0  0  -0.625514  0  2.111579  0  0  -0.392137  -0.580016  0  2.125406  0
O  O46  1  0.24415220  0.54790597  0.88822810  1  0  -0.695778  0  2.054034  0  0  -0.679627  0  2.327597  0  0  -0.715656  0  2.319362  0  0  -0.402259  -0.653277  0  2.332005  0
O  O47  1  0.75584733  0.88822649  0.54790186  1  0  -0.695802  0  2.054155  0  0  -0.679638  0  2.327714  0  0  -0.715684  0  2.319476  0  0  -0.402291  -0.653288  0  2.332123  0
O  O48  1  0.24414622  0.38822845  0.04789998  1  0  -0.695777  0  2.054174  0  0  -0.679617  0  2.327714  0  0  -0.715649  0  2.319478  0  0  -0.402258  -0.653263  0  2.332118  0
O  O49  1  0.75584378  0.04790195  0.38822672  1  0  -0.695811  0  2.054227  0  0  -0.679647  0  2.327758  0  0  -0.715694  0  2.319521  0  0  -0.402256  -0.653302  0  2.332176  0
O  O50  1  0.03810601  0.70452698  0.97063438  1  0  -0.62305  0  1.963982  0  0  -0.573773  0  2.180975  0  0  -0.600412  0  2.170814  0  0  -0.335797  -0.554597  0  2.187188  0
O  O51  1  0.96189191  0.97063094  0.70452648  1  0  -0.62302  0  1.963909  0  0  -0.573718  0  2.180872  0  0  -0.600358  0  2.170711  0  0  -0.335787  -0.554537  0  2.187078  0
O  O52  1  0.03810750  0.47063007  0.20452588  1  0  -0.623016  0  1.963929  0  0  -0.57374  0  2.180921  0  0  -0.600379  0  2.170762  0  0  -0.335768  -0.554559  0  2.187119  0
O  O53  1  0.96189358  0.20452393  0.47063024  1  0  -0.622995  0  1.963933  0  0  -0.57371  0  2.1809  0  0  -0.600349  0  2.170738  0  0  -0.335751  -0.554533  0  2.187115  0
O  O54  1  0.16582651  0.03572240  0.53572225  1  0  -0.930788  0  1.960689  0  0  -0.910114  0  2.169494  0  0  -0.935082  0  2.136988  0  0  -0.654944  -0.89152  0  2.192262  0
O  O55  1  0.83417062  0.53571258  0.03571460  1  0  -0.930895  0  1.96055  0  0  -0.910266  0  2.169402  0  0  -0.935214  0  2.136896  0  0  -0.65494  -0.891681  0  2.192164  0
O  O56  1  0.30617543  0.36521263  0.61491613  1  0  -0.874945  0  1.759382  0  0  -0.833945  0  1.901758  0  0  -0.849002  0  1.874229  0  0  -0.668003  -0.823455  0  1.92107  0
O  O57  1  0.69382617  0.61491383  0.36521077  1  0  -0.875167  0  1.759153  0  0  -0.834148  0  1.901521  0  0  -0.849208  0  1.873991  0  0  -0.66806  -0.823648  0  1.920845  0
O  O58  1  0.30617684  0.11491596  0.86521508  1  0  -0.874911  0  1.759399  0  0  -0.833913  0  1.901776  0  0  -0.848969  0  1.87425  0  0  -0.668005  -0.823423  0  1.921084  0
O  O59  1  0.69382476  0.86521142  0.11491475  1  0  -0.875074  0  1.759215  0  0  -0.834057  0  1.901586  0  0  -0.849115  0  1.874057  0  0  -0.668018  -0.823554  0  1.920909  0
