# generated using pymatgen
data_NiH20C28N2O5
_symmetry_space_group_name_H-M   'P 1'
_cell_length_a   10.08145490
_cell_length_b   11.23331484
_cell_length_c   11.52051748
_cell_angle_alpha   102.13008187
_cell_angle_beta   105.27197275
_cell_angle_gamma   107.41926878
_symmetry_Int_Tables_number   1
_chemical_formula_structural   NiH20C28N2O5
_chemical_formula_sum   'Ni2 H40 C56 N4 O10'
_cell_volume   1140.16280546
_cell_formula_units_Z   2
loop_
 _symmetry_equiv_pos_site_id
 _symmetry_equiv_pos_as_xyz
  1  'x, y, z'
loop_
 _atom_site_type_symbol
 _atom_site_label
 _atom_site_symmetry_multiplicity
 _atom_site_fract_x
 _atom_site_fract_y
 _atom_site_fract_z
 _atom_site_occupancy
 _atom_site_pbe_cm5_charge
 _atom_site_pbe_ddec_charge
 _atom_site_pbe_ddec_spin_density
 _atom_site_pbe_ddec_sum_bond_order
 _atom_site_pbe_magmom
Ni  Ni0  1  0.70504825  0.66008760  0.68768276  1  0.635293  0.719208  0.005032  2.554544  0.003
Ni  Ni1  1  0.29511373  0.34003420  0.31233224  1  0.634696  0.719592  0.004305  2.551042  0.002
H  H2  1  0.60041559  0.67884362  0.45159859  1  0.286099  0.383773  -0.000284  0.95917  0.0
H  H3  1  0.39959524  0.32172609  0.54877773  1  0.286172  0.38343  -0.000273  0.959581  0.0
H  H4  1  0.64904135  0.56263848  0.44792532  1  0.291792  0.382759  0.000278  0.956201  0.0
H  H5  1  0.35065205  0.43769397  0.55213523  1  0.291723  0.382338  0.000278  0.956669  0.0
H  H6  1  0.21970442  0.45819281  0.67685209  1  0.102277  0.103672  0.000161  1.03948  0.0
H  H7  1  0.78072934  0.54179252  0.32319544  1  0.102346  0.103592  0.000156  1.03893  0.0
H  H8  1  0.02959183  0.41873710  0.77645800  1  0.097114  0.094912  -3.8e-05  1.050364  0.0
H  H9  1  0.97052002  0.58115675  0.22318954  1  0.096867  0.094484  -3.7e-05  1.05051  0.0
H  H10  1  0.36895314  0.63442772  0.14504423  1  0.101893  0.113917  6e-06  1.026369  0.0
H  H11  1  0.63063245  0.36517555  0.85488715  1  0.102061  0.113831  6e-06  1.026801  0.0
H  H12  1  0.55959428  0.66875737  0.04323687  1  0.104005  0.106638  -0.000127  1.013478  0.0
H  H13  1  0.44037614  0.33111375  0.95710248  1  0.103981  0.106597  -0.000121  1.01385  0.0
H  H14  1  0.11793564  0.53818804  0.13206764  1  0.103664  0.106387  2.4e-05  1.020029  0.0
H  H15  1  0.88177451  0.46141873  0.86761041  1  0.103622  0.106725  2.4e-05  1.019755  0.0
H  H16  1  0.91588573  0.44249277  0.54235307  1  0.101288  0.102415  -7.5e-05  1.022216  0.0
H  H17  1  0.08404668  0.55766674  0.45735168  1  0.101065  0.101981  -7.6e-05  1.022106  0.0
H  H18  1  0.05957551  0.30384496  0.49191320  1  0.101821  0.111941  -2.5e-05  1.033752  0.0
H  H19  1  0.94029593  0.69623186  0.50787934  1  0.101923  0.112012  -2.6e-05  1.033744  0.0
H  H20  1  0.73196081  0.97202368  0.51944206  1  0.101379  0.108517  -9.6e-05  1.005485  0.0
H  H21  1  0.26809397  0.02831315  0.48095463  1  0.101322  0.108582  -9.8e-05  1.005104  0.0
H  H22  1  0.59344607  0.11226649  0.57160412  1  0.097714  0.096457  3e-06  1.042739  0.0
H  H23  1  0.40676472  0.88824242  0.42883232  1  0.097439  0.095974  3e-06  1.043181  0.0
H  H24  1  0.10677411  0.11525819  0.47584986  1  0.099855  0.106541  -5.8e-05  1.024153  0.0
H  H25  1  0.89293780  0.88479870  0.52386981  1  0.099468  0.106332  -5.9e-05  1.024  0.0
H  H26  1  0.00415192  0.61504569  0.73623915  1  0.118496  0.08568  0.001299  1.041775  0.002
H  H27  1  0.99615088  0.38497337  0.26369524  1  0.118628  0.085692  0.001288  1.041375  0.002
H  H28  1  0.27160705  0.76552021  0.83747805  1  0.105685  0.11005  0.000654  1.023487  0.001
H  H29  1  0.72869114  0.23457296  0.16253685  1  0.105748  0.110366  0.000647  1.024005  0.001
H  H30  1  0.33575291  0.00966191  0.91991439  1  0.109397  0.109172  5.1e-05  0.987802  0.0
H  H31  1  0.66434337  0.99040456  0.08030892  1  0.109233  0.108719  5e-05  0.987369  0.0
H  H32  1  0.23819674  0.19721173  0.96285789  1  0.106226  0.120224  0.000219  1.042734  0.0
H  H33  1  0.76172948  0.80273219  0.03740050  1  0.106199  0.120138  0.000214  1.042602  0.0
H  H34  1  0.02754435  0.26551552  0.94388076  1  0.105236  0.114671  -0.000105  1.021386  0.0
H  H35  1  0.97228019  0.73435076  0.05616099  1  0.105305  0.114587  -0.000107  1.02168  0.0
H  H36  1  0.74378502  0.20296633  0.86805289  1  0.108722  0.108525  -2.3e-05  1.023647  0.0
H  H37  1  0.25609186  0.79690284  0.13160464  1  0.108514  0.10844  -2.3e-05  1.023369  0.0
H  H38  1  0.49177428  0.02388138  0.75638740  1  0.111622  0.119248  -0.000488  0.990254  0.0
H  H39  1  0.50802133  0.97583049  0.24342483  1  0.11175  0.119123  -0.000494  0.991295  0.0
H  H40  1  0.47125777  0.79119782  0.67505413  1  0.120584  0.094849  -0.000808  1.017026  -0.001
H  H41  1  0.52883753  0.20851743  0.32509661  1  0.120558  0.095015  -0.000814  1.016445  -0.001
C  C42  1  0.51881562  0.59597866  0.79512288  1  0.199774  0.544688  0.001258  4.196091  0.0
C  C43  1  0.48127982  0.40400067  0.20494382  1  0.19937  0.544314  0.001276  4.195161  0.0
C  C44  1  0.40203944  0.57060999  0.85313130  1  -0.022834  -0.042752  -0.002476  3.994675  -0.003
C  C45  1  0.59817774  0.42931470  0.14707064  1  -0.022924  -0.043309  -0.002465  3.994863  -0.003
C  C46  1  0.25180668  0.49906782  0.77899656  1  -0.085462  -0.093315  0.000728  3.975725  0.0
C  C47  1  0.74844187  0.50085462  0.22103613  1  -0.084966  -0.092268  0.000722  3.974896  0.0
C  C48  1  0.14488541  0.47804782  0.83554421  1  -0.092158  -0.136581  -0.000168  3.971756  0.0
C  C49  1  0.85517460  0.52175867  0.16426236  1  -0.092325  -0.136543  -0.000166  3.971591  0.0
C  C50  1  0.18382292  0.53089269  0.96762072  1  -0.009064  0.109095  0.000289  4.035335  0.0
C  C51  1  0.81607094  0.46884002  0.03217522  1  -0.009124  0.108509  0.000277  4.034447  0.0
C  C52  1  0.33540226  0.59894284  0.04192950  1  -0.084853  -0.120558  9.7e-05  3.943715  0.0
C  C53  1  0.66441272  0.40073496  0.95803386  1  -0.085404  -0.12091  0.000103  3.944232  0.0
C  C54  1  0.44248645  0.61823438  0.98529157  1  -0.087687  -0.097483  0.000981  3.990896  0.001
C  C55  1  0.55752092  0.38158418  0.01488249  1  -0.08756  -0.097165  0.000987  3.990621  0.001
C  C56  1  0.07379576  0.51722339  0.02932642  1  -0.088585  -0.133619  0.000237  3.981744  0.0
C  C57  1  0.92601855  0.48246315  0.97035828  1  -0.08818  -0.133093  0.000247  3.981  0.0
C  C58  1  0.67317755  0.37239480  0.61514240  1  0.211204  0.570928  -0.001987  4.207229  -0.001
C  C59  1  0.32691738  0.62788536  0.38481265  1  0.211083  0.571069  -0.002026  4.209377  -0.001
C  C60  1  0.74944708  0.28738310  0.56619832  1  -0.027403  -0.056772  -0.004258  3.992545  -0.004
C  C61  1  0.25059998  0.71289395  0.43377370  1  -0.027217  -0.05622  -0.004315  3.990857  -0.004
C  C62  1  0.87762644  0.33952697  0.53802671  1  -0.092115  -0.101711  -4.4e-05  4.008341  0.0
C  C63  1  0.12232788  0.66067352  0.46181762  1  -0.092236  -0.100919  -4.3e-05  4.006692  0.0
C  C64  1  0.95690658  0.26237367  0.50943022  1  -0.094525  -0.140319  -3.9e-05  3.952417  0.0
C  C65  1  0.04297307  0.73777299  0.49037688  1  -0.094848  -0.141495  -4e-05  3.952807  0.0
C  C66  1  0.91118034  0.13043512  0.50845033  1  -0.009782  0.118519  -4.5e-05  4.024571  0.0
C  C67  1  0.08871340  0.86974600  0.49145853  1  -0.009362  0.119115  -4.7e-05  4.025322  0.0
C  C68  1  0.77501040  0.07549413  0.52578174  1  -0.092716  -0.133262  -0.000311  3.948455  0.0
C  C69  1  0.22503092  0.92478088  0.47439093  1  -0.092895  -0.133718  -0.000315  3.948691  0.0
C  C70  1  0.69624374  0.15296556  0.55429488  1  -0.093798  -0.108989  -0.000676  4.025105  -0.001
C  C71  1  0.30385981  0.84735536  0.44591846  1  -0.093397  -0.108567  -0.000685  4.025628  -0.001
C  C72  1  0.00890125  0.06036436  0.49391369  1  -0.091955  -0.130306  -0.000108  3.980102  0.0
C  C73  1  0.99087565  0.93972518  0.50589033  1  -0.091446  -0.129002  -0.000107  3.979537  0.0
C  C74  1  0.95777425  0.89459300  0.80585350  1  0.118332  0.115351  0.00035  3.990127  -0.001
C  C75  1  0.04224677  0.10527123  0.19419028  1  0.118148  0.114154  0.000353  3.990815  -0.001
C  C76  1  0.03605053  0.72081712  0.77318615  1  0.061429  0.109115  0.001106  3.905673  0.0
C  C77  1  0.96406667  0.27914065  0.22677012  1  0.061637  0.110037  0.001088  3.905753  0.0
C  C78  1  0.18582495  0.80682035  0.82987168  1  -0.081032  -0.122118  0.004357  3.973082  0.004
C  C79  1  0.81435508  0.19320352  0.17017499  1  -0.081504  -0.123379  0.004304  3.976215  0.004
C  C80  1  0.22066862  0.94073353  0.87498745  1  -0.065392  -0.083603  -0.001545  3.937034  -0.001
C  C81  1  0.77945076  0.05931005  0.12515842  1  -0.064995  -0.082749  -0.001522  3.936218  -0.001
C  C82  1  0.10475001  0.98861033  0.86457938  1  0.001293  0.048518  0.003019  4.017915  0.003
C  C83  1  0.89525440  0.01130743  0.13553348  1  0.001393  0.049373  0.003005  4.016891  0.003
C  C84  1  0.12619095  0.12380916  0.91281348  1  -0.078875  -0.109549  2.4e-05  3.935126  0.0
C  C85  1  0.87376923  0.87611016  0.08734161  1  -0.078966  -0.110074  1.6e-05  3.936314  0.0
C  C86  1  0.00825796  0.16238685  0.90347905  1  -0.078555  -0.101791  0.000214  3.927627  0.0
C  C87  1  0.99162829  0.83748301  0.09659738  1  -0.078232  -0.100889  0.00021  3.929368  0.0
C  C88  1  0.85866623  0.06918561  0.84329403  1  0.001665  0.046492  -0.002433  4.012593  -0.002
C  C89  1  0.14125122  0.93062352  0.15664534  1  0.001344  0.04557  -0.002448  4.014685  -0.002
C  C90  1  0.73145113  0.10115430  0.83090052  1  -0.061025  -0.070054  0.001872  3.926784  0.001
C  C91  1  0.26842018  0.89868125  0.16896286  1  -0.060765  -0.069723  0.001887  3.927667  0.001
C  C92  1  0.59221715  0.00216711  0.77050472  1  -0.080509  -0.131821  -0.002581  3.978718  -0.002
C  C93  1  0.40768133  0.99760394  0.22939878  1  -0.081111  -0.132244  -0.002614  3.98036  -0.002
C  C94  1  0.57901066  0.87137849  0.72344592  1  0.056507  0.102693  0.000128  3.904173  0.0
C  C95  1  0.42105657  0.12836755  0.27658586  1  0.057093  0.103505  0.000116  3.903893  0.0
C  C96  1  0.83492224  0.93506736  0.79385563  1  0.118259  0.113634  0.000773  3.98671  0.002
C  C97  1  0.16506741  0.06475203  0.20613861  1  0.118373  0.114774  0.000764  3.98537  0.001
N  N98  1  0.92466827  0.76323730  0.76096340  1  -0.317563  -0.228615  0.058702  3.579653  0.056
N  N99  1  0.07539830  0.23663746  0.23901245  1  -0.317465  -0.22881  0.058213  3.5786  0.055
N  N100  1  0.69748712  0.83830986  0.73558310  1  -0.32058  -0.228672  -0.036109  3.596629  -0.034
N  N101  1  0.30256508  0.16147556  0.26445420  1  -0.319865  -0.229621  -0.036621  3.59282  -0.035
O  O102  1  0.48243007  0.58214548  0.67504575  1  -0.306927  -0.541118  0.05957  2.303202  0.062
O  O103  1  0.51741074  0.41808074  0.32508329  1  -0.306777  -0.540695  0.059444  2.303681  0.062
O  O104  1  0.65402743  0.63634099  0.86384466  1  -0.295514  -0.519798  -0.021214  2.236368  -0.023
O  O105  1  0.34611452  0.36341508  0.13607142  1  -0.295282  -0.519438  -0.020122  2.236656  -0.022
O  O106  1  0.74260541  0.49660020  0.63937049  1  -0.314764  -0.534731  -0.035183  2.407051  -0.037
O  O107  1  0.25746017  0.50366169  0.36034510  1  -0.314755  -0.535219  -0.035626  2.407091  -0.038
O  O108  1  0.55459446  0.31768946  0.63302200  1  -0.326561  -0.557577  -0.000853  2.18106  -0.001
O  O109  1  0.44560499  0.68270795  0.36713126  1  -0.326667  -0.557861  -0.000883  2.182565  -0.001
O  O110  1  0.68575244  0.65723036  0.49629776  1  -0.578529  -0.754131  -0.028972  2.137683  -0.03
O  O111  1  0.31421363  0.34316494  0.50387688  1  -0.578657  -0.753401  -0.028114  2.139053  -0.029
