# generated using pymatgen
data_SnH28C22O3
_symmetry_space_group_name_H-M   'P 1'
_cell_length_a   10.24792524
_cell_length_b   10.84021162
_cell_length_c   10.84026108
_cell_angle_alpha   65.20588177
_cell_angle_beta   72.09563063
_cell_angle_gamma   72.09618213
_symmetry_Int_Tables_number   1
_chemical_formula_structural   SnH28C22O3
_chemical_formula_sum   'Sn2 H56 C44 O6'
_cell_volume   1017.84056763
_cell_formula_units_Z   2
loop_
 _symmetry_equiv_pos_site_id
 _symmetry_equiv_pos_as_xyz
  1  'x, y, z'
loop_
 _atom_site_type_symbol
 _atom_site_label
 _atom_site_symmetry_multiplicity
 _atom_site_fract_x
 _atom_site_fract_y
 _atom_site_fract_z
 _atom_site_occupancy
 _atom_site_hle17_bader_spin_density
 _atom_site_hle17_ddec_charge
 _atom_site_hle17_ddec_spin_density
 _atom_site_hle17_ddec_sum_bond_order
 _atom_site_hle17_magmom
 _atom_site_hse06_10hf_bader_spin_density
 _atom_site_hse06_10hf_ddec_charge
 _atom_site_hse06_10hf_ddec_spin_density
 _atom_site_hse06_10hf_ddec_sum_bond_order
 _atom_site_hse06_10hf_magmom
 _atom_site_hse06_bader_spin_density
 _atom_site_hse06_ddec_charge
 _atom_site_hse06_ddec_spin_density
 _atom_site_hse06_ddec_sum_bond_order
 _atom_site_hse06_magmom
 _atom_site_pbe_bader_spin_density
 _atom_site_pbe_cm5_charge
 _atom_site_pbe_ddec_charge
 _atom_site_pbe_ddec_spin_density
 _atom_site_pbe_ddec_sum_bond_order
 _atom_site_pbe_magmom
Sn  Sn0  1  0.43632505  0.32159949  0.50887027  1  0  1.410436  0  2.825599  0  0  1.251526  0  3.319861  0  0  1.299694  0  3.293894  0  0  0.627823  1.217792  0  3.338875  0
Sn  Sn1  1  0.93631909  0.50887696  0.32158841  1  0  1.410374  0  2.825593  0  0  1.25147  0  3.319801  0  0  1.299634  0  3.293843  0  0  0.627759  1.217735  0  3.338817  0
H  H2  1  0.61589647  0.62940312  0.55205717  1  0  0.101518  0  0.967873  0  0  0.108132  0  1.037074  0  0  0.111567  0  1.034994  0  0  0.1026  0.105591  0  1.038613  0
H  H3  1  0.11589606  0.55205887  0.62940799  1  0  0.101513  0  0.967935  0  0  0.108087  0  1.037168  0  0  0.111542  0  1.035071  0  0  0.102584  0.105541  0  1.038721  0
H  H4  1  0.54402609  0.77633863  0.69237679  1  0  0.079137  0  0.967926  0  0  0.089838  0  1.030044  0  0  0.0921  0  1.029893  0  0  0.096732  0.088433  0  1.029874  0
H  H5  1  0.04401983  0.69236640  0.77635325  1  0  0.079136  0  0.968019  0  0  0.08987  0  1.030093  0  0  0.092131  0  1.029947  0  0  0.096743  0.088464  0  1.029916  0
H  H6  1  0.23214407  0.81723778  0.39993861  1  0  0.094565  0  0.955794  0  0  0.106517  0  1.017696  0  0  0.109163  0  1.016794  0  0  0.103146  0.104679  0  1.01837  0
H  H7  1  0.73214313  0.39993204  0.81723325  1  0  0.094571  0  0.955776  0  0  0.1065  0  1.017712  0  0  0.109147  0  1.016811  0  0  0.103145  0.104661  0  1.018386  0
H  H8  1  0.15826952  0.96579759  0.54301403  1  0  0.085521  0  0.960138  0  0  0.097126  0  1.019173  0  0  0.099435  0  1.019306  0  0  0.097233  0.09539  0  1.019284  0
H  H9  1  0.65826243  0.54300530  0.96580101  1  0  0.085552  0  0.960014  0  0  0.097132  0  1.019081  0  0  0.099447  0  1.019213  0  0  0.097253  0.095397  0  1.019192  0
H  H10  1  0.31309885  0.94699726  0.68936766  1  0  0.080288  0  0.965738  0  0  0.091324  0  1.028048  0  0  0.09373  0  1.027643  0  0  0.095446  0.089674  0  1.027966  0
H  H11  1  0.81309451  0.68935175  0.94701039  1  0  0.080344  0  0.965684  0  0  0.091366  0  1.027983  0  0  0.093771  0  1.027577  0  0  0.095476  0.089714  0  1.027912  0
H  H12  1  0.32153024  0.58572889  0.22504790  1  0  0.101334  0  0.970986  0  0  0.109229  0  1.036297  0  0  0.112987  0  1.034026  0  0  0.101676  0.106483  0  1.038117  0
H  H13  1  0.82153223  0.22504441  0.58572412  1  0  0.101456  0  0.970927  0  0  0.109309  0  1.03628  0  0  0.113066  0  1.034011  0  0  0.101731  0.106565  0  1.038098  0
H  H14  1  0.58611192  0.83826348  0.20039553  1  0  0.095463  0  0.964812  0  0  0.104403  0  1.030207  0  0  0.107701  0  1.028126  0  0  0.101772  0.102051  0  1.031624  0
H  H15  1  0.08610920  0.20039630  0.83826187  1  0  0.095394  0  0.964834  0  0  0.104313  0  1.030269  0  0  0.107635  0  1.028158  0  0  0.101721  0.101955  0  1.031702  0
H  H16  1  0.32416115  0.71022117  0.97043528  1  0  0.07833  0  0.973498  0  0  0.089828  0  1.036495  0  0  0.092189  0  1.036041  0  0  0.096143  0.088441  0  1.036165  0
H  H17  1  0.82416051  0.97043051  0.71021628  1  0  0.078314  0  0.973492  0  0  0.089828  0  1.036476  0  0  0.092191  0  1.036018  0  0  0.096114  0.08844  0  1.036143  0
H  H18  1  0.46051954  0.89650754  0.83261432  1  0  0.075005  0  0.981259  0  0  0.087105  0  1.044513  0  0  0.089492  0  1.043431  0  0  0.095563  0.085822  0  1.044409  0
H  H19  1  0.96051528  0.83261715  0.89650348  1  0  0.074994  0  0.981239  0  0  0.08711  0  1.044481  0  0  0.089497  0  1.043399  0  0  0.09555  0.085827  0  1.044382  0
H  H20  1  0.41731443  0.13039903  0.42546738  1  0  0.113482  0  0.994335  0  0  0.126177  0  1.05756  0  0  0.128207  0  1.059993  0  0  0.086775  0.124927  0  1.055874  0
H  H21  1  0.91731105  0.42547023  0.13040341  1  0  0.113468  0  0.994353  0  0  0.126169  0  1.057583  0  0  0.128199  0  1.060019  0  0  0.086766  0.12492  0  1.055895  0
H  H22  1  0.37042353  0.29784896  0.30281744  1  0  0.124615  0  0.984984  0  0  0.135577  0  1.04948  0  0  0.138821  0  1.04945  0  0  0.091158  0.132612  0  1.050787  0
H  H23  1  0.87041679  0.30281891  0.29785315  1  0  0.124655  0  0.985114  0  0  0.135627  0  1.049581  0  0  0.13887  0  1.049556  0  0  0.09118  0.132663  0  1.050886  0
H  H24  1  0.55309562  0.04181836  0.23346206  1  0  0.054415  0  0.936937  0  0  0.075599  0  0.993976  0  0  0.075865  0  0.995095  0  0  0.084751  0.07513  0  0.993796  0
H  H25  1  0.05309028  0.23345461  0.04182455  1  0  0.054465  0  0.936779  0  0  0.075629  0  0.993831  0  0  0.075891  0  0.994956  0  0  0.084765  0.075161  0  0.993651  0
H  H26  1  0.51236642  0.20681232  0.10749911  1  0  0.046411  0  0.952528  0  0  0.067375  0  1.011858  0  0  0.067835  0  1.012409  0  0  0.082013  0.067173  0  1.011596  0
H  H27  1  0.01236245  0.10749092  0.20681928  1  0  0.046367  0  0.952516  0  0  0.067343  0  1.011818  0  0  0.067801  0  1.01237  0  0  0.081996  0.067141  0  1.011557  0
H  H28  1  0.67511482  0.14081970  0.32987755  1  0  0.05298  0  0.945861  0  0  0.076483  0  1.002641  0  0  0.076351  0  1.004054  0  0  0.086838  0.076001  0  1.002456  0
H  H29  1  0.17510883  0.32987938  0.14081779  1  0  0.052955  0  0.945882  0  0  0.076492  0  1.002619  0  0  0.076358  0  1.004034  0  0  0.086846  0.07601  0  1.002434  0
H  H30  1  0.62879929  0.30616089  0.20593387  1  0  0.056665  0  0.931307  0  0  0.077122  0  0.98968  0  0  0.077441  0  0.99067  0  0  0.086669  0.076918  0  0.989066  0
H  H31  1  0.12879253  0.20593378  0.30616222  1  0  0.056684  0  0.931246  0  0  0.077126  0  0.989649  0  0  0.077444  0  0.990636  0  0  0.086677  0.076921  0  0.989034  0
H  H32  1  0.77459854  0.20700997  0.01774171  1  0  0.088009  0  0.977224  0  0  0.108003  0  1.044098  0  0  0.108499  0  1.045908  0  0  0.080442  0.107359  0  1.043308  0
H  H33  1  0.27459396  0.01774493  0.20701528  1  0  0.088035  0  0.977186  0  0  0.107989  0  1.044121  0  0  0.108483  0  1.045928  0  0  0.080448  0.107345  0  1.04333  0
H  H34  1  0.72760593  0.07126787  0.00166300  1  0  0.085569  0  0.979577  0  0  0.10486  0  1.047561  0  0  0.105129  0  1.049617  0  0  0.078673  0.104706  0  1.04586  0
H  H35  1  0.22760549  0.00165754  0.07127481  1  0  0.085532  0  0.979594  0  0  0.104816  0  1.047585  0  0  0.105085  0  1.049638  0  0  0.078672  0.104661  0  1.045883  0
H  H36  1  0.81082189  0.03590883  0.13738540  1  0  0.08834  0  0.971993  0  0  0.111319  0  1.034672  0  0  0.111764  0  1.036166  0  0  0.082439  0.110907  0  1.033715  0
H  H37  1  0.31081467  0.13738555  0.03591310  1  0  0.088338  0  0.971906  0  0  0.111305  0  1.034603  0  0  0.111749  0  1.036096  0  0  0.082418  0.110893  0  1.033644  0
H  H38  1  0.40852621  0.14926110  0.77289607  1  0  0.116829  0  0.980614  0  0  0.133094  0  1.039121  0  0  0.135382  0  1.040345  0  0  0.090869  0.131366  0  1.038692  0
H  H39  1  0.90853507  0.77289235  0.14925973  1  0  0.116819  0  0.980636  0  0  0.133016  0  1.039253  0  0  0.135305  0  1.040477  0  0  0.090819  0.131291  0  1.038822  0
H  H40  1  0.59001311  0.14082354  0.69565932  1  0  0.109386  0  0.992279  0  0  0.124502  0  1.053897  0  0  0.126339  0  1.055683  0  0  0.087023  0.123185  0  1.052907  0
H  H41  1  0.09002365  0.69566377  0.14081853  1  0  0.10929  0  0.992321  0  0  0.124418  0  1.053926  0  0  0.126257  0  1.055712  0  0  0.086991  0.123101  0  1.052937  0
H  H42  1  0.59091016  0.96123857  0.94837784  1  0  0.082212  0  0.964621  0  0  0.094655  0  1.024564  0  0  0.097009  0  1.024432  0  0  0.097801  0.092753  0  1.025232  0
H  H43  1  0.09090630  0.94838377  0.96122566  1  0  0.082099  0  0.96456  0  0  0.094498  0  1.024577  0  0  0.096859  0  1.024414  0  0  0.097736  0.09261  0  1.025203  0
H  H44  1  0.27077620  0.34355602  0.86140340  1  0  0.057246  0  0.93907  0  0  0.079546  0  0.995847  0  0  0.079762  0  0.997237  0  0  0.085993  0.079321  0  0.994971  0
H  H45  1  0.77077539  0.86140074  0.34355184  1  0  0.057236  0  0.939196  0  0  0.079545  0  0.99594  0  0  0.079762  0  0.99733  0  0  0.085989  0.07932  0  0.995062  0
H  H46  1  0.32860183  0.47837842  0.71116774  1  0  0.058999  0  0.962157  0  0  0.0769  0  1.025222  0  0  0.077377  0  1.026362  0  0  0.086834  0.076284  0  1.024815  0
H  H47  1  0.82859963  0.71116598  0.47837232  1  0  0.058978  0  0.962166  0  0  0.076889  0  1.025222  0  0  0.077366  0  1.026358  0  0  0.086823  0.076273  0  1.024814  0
H  H48  1  0.37838101  0.40793860  0.00205615  1  0  0.080671  0  0.971122  0  0  0.101203  0  1.036537  0  0  0.102561  0  1.036289  0  0  0.079653  0.099994  0  1.037272  0
H  H49  1  0.87837037  0.00205628  0.40793940  1  0  0.080677  0  0.971153  0  0  0.101212  0  1.03656  0  0  0.102567  0  1.036315  0  0  0.079669  0.100001  0  1.037297  0
H  H50  1  0.25564162  0.55070726  0.91601957  1  0  0.08353  0  0.957312  0  0  0.105495  0  1.019757  0  0  0.106567  0  1.019989  0  0  0.080827  0.104925  0  1.019106  0
H  H51  1  0.75562867  0.91601742  0.55070361  1  0  0.083511  0  0.957373  0  0  0.105466  0  1.019835  0  0  0.10654  0  1.020066  0  0  0.080823  0.104897  0  1.019182  0
H  H52  1  0.43805780  0.54263585  0.84913795  1  0  0.087339  0  0.976452  0  0  0.10863  0  1.040609  0  0  0.108939  0  1.042837  0  0  0.081157  0.108128  0  1.039474  0
H  H53  1  0.93804563  0.84913493  0.54263649  1  0  0.087323  0  0.976429  0  0  0.10861  0  1.040587  0  0  0.108919  0  1.042813  0  0  0.08115  0.108109  0  1.03945  0
H  H54  1  0.52846738  0.23759256  0.88154304  1  0  0.056712  0  0.941094  0  0  0.078903  0  1.001163  0  0  0.078693  0  1.002428  0  0  0.086503  0.079013  0  1.00023  0
H  H55  1  0.02847414  0.88154288  0.23759649  1  0  0.056718  0  0.941081  0  0  0.078884  0  1.001172  0  0  0.078672  0  1.00244  0  0  0.086496  0.078994  0  1.000239  0
H  H56  1  0.57699804  0.36523444  0.71971163  1  0  0.063574  0  0.93614  0  0  0.082405  0  0.999425  0  0  0.082735  0  1.000292  0  0  0.088587  0.082197  0  0.998604  0
H  H57  1  0.07699361  0.71970926  0.36523808  1  0  0.063601  0  0.936225  0  0  0.082454  0  0.999456  0  0  0.082785  0  1.000323  0  0  0.088587  0.082245  0  0.998638  0
C  C58  1  0.46205963  0.61946823  0.38142588  1  0  0.130817  0  3.726748  0  0  0.124214  0  3.962738  0  0  0.127955  0  3.973492  0  0  0.079149  0.121719  0  3.954515  0
C  C59  1  0.96205789  0.38143204  0.61945662  1  0  0.131105  0  3.72611  0  0  0.124231  0  3.962445  0  0  0.127968  0  3.9732  0  0  0.079108  0.121739  0  3.954221  0
C  C60  1  0.42950890  0.71462286  0.46415951  1  0  0.032445  0  3.699298  0  0  0.048826  0  3.932784  0  0  0.047916  0  3.956282  0  0  -0.008863  0.049027  0  3.917555  0
C  C61  1  0.92950984  0.46415680  0.71461708  1  0  0.032539  0  3.699096  0  0  0.048964  0  3.932618  0  0  0.048058  0  3.956116  0  0  -0.008834  0.049164  0  3.917388  0
C  C62  1  0.51589763  0.70350233  0.54777486  1  0  -0.105409  0  3.716648  0  0  -0.126133  0  3.963576  0  0  -0.128506  0  3.984718  0  0  -0.090168  -0.124839  0  3.949845  0
C  C63  1  0.01589532  0.54777454  0.70350200  1  0  -0.105432  0  3.71659  0  0  -0.126115  0  3.963532  0  0  -0.128506  0  3.984658  0  0  -0.090163  -0.124825  0  3.949797  0
C  C64  1  0.47481833  0.78749704  0.62767866  1  0  -0.074065  0  3.787188  0  0  -0.082121  0  4.028945  0  0  -0.084383  0  4.051649  0  0  -0.094526  -0.080584  0  4.013373  0
C  C65  1  0.97481555  0.62766830  0.78750689  1  0  -0.074084  0  3.787096  0  0  -0.08216  0  4.028844  0  0  -0.084429  0  4.051559  0  0  -0.094519  -0.080616  0  4.013267  0
C  C66  1  0.30070535  0.80998375  0.46324015  1  0  -0.097242  0  3.726848  0  0  -0.118967  0  3.973594  0  0  -0.120617  0  3.993897  0  0  -0.089256  -0.117872  0  3.960402  0
C  C67  1  0.80070865  0.46322925  0.80998522  1  0  -0.097379  0  3.726823  0  0  -0.119082  0  3.973572  0  0  -0.120736  0  3.993878  0  0  -0.089316  -0.117987  0  3.960378  0
C  C68  1  0.25921596  0.89302104  0.54357781  1  0  -0.077597  0  3.791913  0  0  -0.087036  0  4.036494  0  0  -0.089085  0  4.058195  0  0  -0.094824  -0.08524  0  4.021359  0
C  C69  1  0.75921478  0.54356414  0.89302729  1  0  -0.07757  0  3.791749  0  0  -0.086982  0  4.03631  0  0  -0.089038  0  4.058018  0  0  -0.094807  -0.085187  0  4.021177  0
C  C70  1  0.34673565  0.88225754  0.62609036  1  0  -0.091032  0  3.803101  0  0  -0.103349  0  4.047019  0  0  -0.105641  0  4.069447  0  0  -0.099815  -0.10174  0  4.030955  0
C  C71  1  0.84673324  0.62607539  0.88226846  1  0  -0.091057  0  3.803034  0  0  -0.103362  0  4.046973  0  0  -0.105653  0  4.069402  0  0  -0.099829  -0.101755  0  4.030904  0
C  C72  1  0.38053069  0.66780834  0.16289803  1  0  -0.105865  0  3.734161  0  0  -0.125601  0  3.978086  0  0  -0.127605  0  3.998858  0  0  -0.09468  -0.124615  0  3.964595  0
C  C73  1  0.88052683  0.16289968  0.66780268  1  0  -0.105992  0  3.734198  0  0  -0.125726  0  3.978112  0  0  -0.127732  0  3.998882  0  0  -0.094726  -0.124741  0  3.964621  0
C  C74  1  0.45482911  0.70311163  0.22766992  1  0  0.019148  0  3.710776  0  0  0.037387  0  3.939025  0  0  0.03574  0  3.963409  0  0  -0.013294  0.038626  0  3.922679  0
C  C75  1  0.95482729  0.22767609  0.70310284  1  0  0.019219  0  3.710614  0  0  0.037572  0  3.938846  0  0  0.035927  0  3.963235  0  0  -0.013176  0.038809  0  3.922505  0
C  C76  1  0.52903709  0.81027411  0.14966021  1  0  -0.101291  0  3.746639  0  0  -0.123944  0  3.994448  0  0  -0.125139  0  4.014528  0  0  -0.090956  -0.122712  0  3.980613  0
C  C77  1  0.02903102  0.14966762  0.81026575  1  0  -0.101335  0  3.746664  0  0  -0.124021  0  3.994453  0  0  -0.125235  0  4.014527  0  0  -0.090985  -0.122796  0  3.98062  0
C  C78  1  0.38186767  0.73813180  0.02094921  1  0  -0.084125  0  3.806095  0  0  -0.095094  0  4.055578  0  0  -0.09749  0  4.077757  0  0  -0.097265  -0.093411  0  4.04012  0
C  C79  1  0.88186765  0.02094586  0.73812392  1  0  -0.084096  0  3.806101  0  0  -0.095072  0  4.05557  0  0  -0.097463  0  4.077743  0  0  -0.097238  -0.093386  0  4.040107  0
C  C80  1  0.45848460  0.84252071  0.94332884  1  0  -0.086179  0  3.804228  0  0  -0.103698  0  4.056234  0  0  -0.105325  0  4.077834  0  0  -0.096596  -0.102252  0  4.040496  0
C  C81  1  0.95847791  0.94332955  0.84251573  1  0  -0.086275  0  3.804183  0  0  -0.103831  0  4.056205  0  0  -0.10546  0  4.077802  0  0  -0.096627  -0.102386  0  4.040467  0
C  C82  1  0.61506744  0.53412520  0.37597938  1  0  0.621336  0  3.787312  0  0  0.563359  0  4.087459  0  0  0.596992  0  4.079419  0  0  0.245781  0.540504  0  4.092131  0
C  C83  1  0.11506451  0.37598656  0.53411005  1  0  0.621241  0  3.787176  0  0  0.563352  0  4.087312  0  0  0.596991  0  4.079262  0  0  0.245818  0.540495  0  4.091983  0
C  C84  1  0.45149231  0.22943716  0.36237203  1  0  -0.50718  0  3.623881  0  0  -0.519192  0  3.892064  0  0  -0.5323  0  3.907373  0  0  -0.239219  -0.510285  0  3.882392  0
C  C85  1  0.95148596  0.36237109  0.22943947  1  0  -0.507207  0  3.624152  0  0  -0.519235  0  3.892362  0  0  -0.532329  0  3.907638  0  0  -0.239205  -0.510332  0  3.882698  0
C  C86  1  0.59122138  0.13913901  0.17084645  1  0  -0.059689  0  3.701971  0  0  -0.090459  0  3.959118  0  0  -0.091196  0  3.973798  0  0  -0.169811  -0.089863  0  3.948957  0
C  C87  1  0.09121698  0.17084027  0.13914426  1  0  -0.059751  0  3.701808  0  0  -0.090486  0  3.95893  0  0  -0.091223  0  3.973607  0  0  -0.169817  -0.089892  0  3.948771  0
C  C88  1  0.59458053  0.20682306  0.26818846  1  0  -0.046815  0  3.753032  0  0  -0.085538  0  4.009559  0  0  -0.084681  0  4.027014  0  0  -0.169243  -0.085983  0  3.997921  0
C  C89  1  0.09457475  0.26818821  0.20682367  1  0  -0.046778  0  3.753005  0  0  -0.085531  0  4.009573  0  0  -0.084672  0  4.02703  0  0  -0.169257  -0.085976  0  3.997935  0
C  C90  1  0.73302910  0.11174767  0.07696059  1  0  -0.294277  0  3.735342  0  0  -0.370418  0  3.98316  0  0  -0.372952  0  3.995897  0  0  -0.254228  -0.368061  0  3.973989  0
C  C91  1  0.23302383  0.07695743  0.11175538  1  0  -0.294222  0  3.735294  0  0  -0.370319  0  3.98309  0  0  -0.372846  0  3.995823  0  0  -0.254212  -0.367963  0  3.97392  0
C  C92  1  0.48876152  0.21190604  0.71109249  1  0  -0.500422  0  3.606559  0  0  -0.514754  0  3.872376  0  0  -0.527583  0  3.888162  0  0  -0.237635  -0.506076  0  3.862503  0
C  C93  1  0.98876972  0.71109538  0.21190109  1  0  -0.500204  0  3.606512  0  0  -0.514501  0  3.872324  0  0  -0.52733  0  3.888116  0  0  -0.237531  -0.50582  0  3.862444  0
C  C94  1  0.53187368  0.87881868  0.00813744  1  0  -0.070387  0  3.78542  0  0  -0.078903  0  4.030329  0  0  -0.081224  0  4.052148  0  0  -0.092104  -0.077361  0  4.015639  0
C  C95  1  0.03186350  0.00814443  0.87881198  1  0  -0.070203  0  3.785173  0  0  -0.078643  0  4.030045  0  0  -0.080958  0  4.05188  0  0  -0.092022  -0.077095  0  4.015364  0
C  C96  1  0.35514666  0.40275027  0.81075821  1  0  -0.079134  0  3.707756  0  0  -0.111076  0  3.965674  0  0  -0.112368  0  3.981524  0  0  -0.172311  -0.110054  0  3.954796  0
C  C97  1  0.85514414  0.81075811  0.40274513  1  0  -0.07917  0  3.708012  0  0  -0.111102  0  3.965879  0  0  -0.112396  0  3.981733  0  0  -0.172326  -0.110082  0  3.955003  0
C  C98  1  0.35698901  0.48003041  0.89946226  1  0  -0.2815  0  3.738301  0  0  -0.355134  0  3.984108  0  0  -0.357515  0  3.995869  0  0  -0.248879  -0.353209  0  3.975942  0
C  C99  1  0.85698002  0.89946074  0.48003074  1  0  -0.281426  0  3.738353  0  0  -0.35507  0  3.984175  0  0  -0.357452  0  3.995932  0  0  -0.248856  -0.353145  0  3.976009  0
C  C100  1  0.49481480  0.30471285  0.78242552  1  0  -0.053009  0  3.734392  0  0  -0.093804  0  3.99809  0  0  -0.092813  0  4.015072  0  0  -0.169329  -0.094256  0  3.986157  0
C  C101  1  0.99481611  0.78242489  0.30471486  1  0  -0.053093  0  3.734632  0  0  -0.093876  0  3.998278  0  0  -0.092885  0  4.015262  0  0  -0.169331  -0.094328  0  3.986349  0
O  O102  1  0.63523607  0.40254026  0.41908831  1  0  -0.579806  0  2.05441  0  0  -0.505576  0  2.291682  0  0  -0.531783  0  2.284466  0  0  -0.254017  -0.487555  0  2.296575  0
O  O103  1  0.13523378  0.41910089  0.40252516  1  0  -0.579897  0  2.054463  0  0  -0.505677  0  2.291679  0  0  -0.531892  0  2.284472  0  0  -0.254082  -0.487646  0  2.296563  0
O  O104  1  0.71274955  0.60170661  0.32395429  1  0  -0.579233  0  2.118513  0  0  -0.507027  0  2.367034  0  0  -0.534505  0  2.361064  0  0  -0.258064  -0.487899  0  2.370404  0
O  O105  1  0.21274605  0.32396160  0.60169073  1  0  -0.579178  0  2.118338  0  0  -0.506977  0  2.36679  0  0  -0.534456  0  2.360819  0  0  -0.258058  -0.48783  0  2.370114  0
O  O106  1  0.36517869  0.53156344  0.44557634  1  0  -0.63803  0  2.022379  0  0  -0.578812  0  2.285344  0  0  -0.599207  0  2.279255  0  0  -0.332956  -0.563246  0  2.288702  0
O  O107  1  0.86517388  0.44558574  0.53155396  1  0  -0.638193  0  2.022074  0  0  -0.57885  0  2.285056  0  0  -0.599246  0  2.278966  0  0  -0.332965  -0.563287  0  2.288421  0
