# generated using pymatgen
data_ZnH28(C2N)14
_symmetry_space_group_name_H-M   'P 1'
_cell_length_a   8.64514413
_cell_length_b   12.63938739
_cell_length_c   13.02186873
_cell_angle_alpha   89.99998058
_cell_angle_beta   89.99993622
_cell_angle_gamma   106.40149835
_symmetry_Int_Tables_number   1
_chemical_formula_structural   ZnH28(C2N)14
_chemical_formula_sum   'Zn2 H56 C56 N28'
_cell_volume   1364.98853713
_cell_formula_units_Z   2
loop_
 _symmetry_equiv_pos_site_id
 _symmetry_equiv_pos_as_xyz
  1  'x, y, z'
loop_
 _atom_site_type_symbol
 _atom_site_label
 _atom_site_symmetry_multiplicity
 _atom_site_fract_x
 _atom_site_fract_y
 _atom_site_fract_z
 _atom_site_occupancy
 _atom_site_hle17_bader_spin_density
 _atom_site_hle17_ddec_charge
 _atom_site_hle17_ddec_spin_density
 _atom_site_hle17_ddec_sum_bond_order
 _atom_site_hle17_magmom
 _atom_site_hse06_10hf_bader_spin_density
 _atom_site_hse06_10hf_ddec_charge
 _atom_site_hse06_10hf_ddec_spin_density
 _atom_site_hse06_10hf_ddec_sum_bond_order
 _atom_site_hse06_10hf_magmom
 _atom_site_hse06_bader_spin_density
 _atom_site_hse06_ddec_charge
 _atom_site_hse06_ddec_spin_density
 _atom_site_hse06_ddec_sum_bond_order
 _atom_site_hse06_magmom
 _atom_site_pbe_bader_spin_density
 _atom_site_pbe_cm5_charge
 _atom_site_pbe_ddec_charge
 _atom_site_pbe_ddec_spin_density
 _atom_site_pbe_ddec_sum_bond_order
 _atom_site_pbe_magmom
Zn  Zn0  1  0.00000029  0.99999699  0.50000181  1  0  0.86614  0  2.029896  0  0  0.671381  0  2.482827  0  0  0.71479  0  2.443968  0  0  0.688844  0.642548  0  2.508263  0
Zn  Zn1  1  0.49999679  0.99999669  0.99999898  1  0  0.866128  0  2.029855  0  0  0.671379  0  2.482783  0  0  0.71479  0  2.443926  0  0  0.688842  0.642548  0  2.508217  0
H  H2  1  0.94604926  0.22992758  0.43237304  1  0  0.071601  0  1.006505  0  0  0.079571  0  1.074152  0  0  0.08105  0  1.073702  0  0  0.117773  0.078209  0  1.074994  0
H  H3  1  0.55395123  0.77006794  0.93237967  1  0  0.071636  0  1.006538  0  0  0.079524  0  1.074253  0  0  0.081002  0  1.073811  0  0  0.117734  0.078167  0  1.075082  0
H  H4  1  0.05394963  0.77006736  0.56762422  1  0  0.071634  0  1.006467  0  0  0.079544  0  1.074176  0  0  0.081023  0  1.073729  0  0  0.117747  0.078182  0  1.075013  0
H  H5  1  0.44604936  0.22993112  0.06762527  1  0  0.071662  0  1.006408  0  0  0.079577  0  1.074115  0  0  0.081056  0  1.073668  0  0  0.117756  0.078213  0  1.074958  0
H  H6  1  0.38958368  0.44631725  0.31985173  1  0  0.097099  0  0.966989  0  0  0.104821  0  1.034535  0  0  0.107765  0  1.032786  0  0  0.106968  0.102779  0  1.035578  0
H  H7  1  0.11041698  0.55368352  0.81985455  1  0  0.097144  0  0.966984  0  0  0.104868  0  1.034523  0  0  0.107811  0  1.032776  0  0  0.106992  0.102825  0  1.035566  0
H  H8  1  0.61041724  0.55368264  0.68014784  1  0  0.097106  0  0.967  0  0  0.104831  0  1.034539  0  0  0.107775  0  1.03279  0  0  0.106968  0.102788  0  1.035583  0
H  H9  1  0.88958216  0.44632048  0.18014502  1  0  0.097128  0  0.966978  0  0  0.104853  0  1.034548  0  0  0.107796  0  1.032801  0  0  0.106985  0.102811  0  1.03559  0
H  H10  1  0.51349156  0.28780069  0.34101226  1  0  0.113979  0  0.959548  0  0  0.122763  0  1.019801  0  0  0.125714  0  1.019552  0  0  0.106721  0.119302  0  1.022752  0
H  H11  1  0.98651114  0.71219985  0.84101322  1  0  0.113935  0  0.959585  0  0  0.122692  0  1.019877  0  0  0.125643  0  1.019627  0  0  0.106693  0.11923  0  1.022825  0
H  H12  1  0.48651418  0.71220250  0.65898961  1  0  0.113952  0  0.959572  0  0  0.122676  0  1.019905  0  0  0.125625  0  1.019658  0  0  0.106694  0.119218  0  1.022849  0
H  H13  1  0.01348916  0.28780416  0.15898711  1  0  0.114052  0  0.9595  0  0  0.122805  0  1.019782  0  0  0.125757  0  1.019529  0  0  0.10672  0.119343  0  1.022732  0
H  H14  1  0.34340683  0.11026066  0.41148688  1  0  0.079606  0  0.976466  0  0  0.082899  0  1.051467  0  0  0.085868  0  1.048352  0  0  0.112585  0.080965  0  1.053166  0
H  H15  1  0.15659746  0.88974087  0.91148649  1  0  0.079638  0  0.976438  0  0  0.082935  0  1.051442  0  0  0.085903  0  1.048329  0  0  0.112606  0.080998  0  1.053139  0
H  H16  1  0.65660075  0.88974418  0.58851729  1  0  0.079634  0  0.976421  0  0  0.082867  0  1.051475  0  0  0.085833  0  1.048365  0  0  0.112605  0.080936  0  1.053177  0
H  H17  1  0.84340713  0.11026232  0.08851078  1  0  0.079593  0  0.976462  0  0  0.08288  0  1.051478  0  0  0.085851  0  1.048358  0  0  0.112587  0.080945  0  1.053175  0
H  H18  1  0.87006942  0.49278142  0.40005201  1  0  0.122916  0  0.972075  0  0  0.140574  0  1.034607  0  0  0.143343  0  1.033282  0  0  0.094621  0.13868  0  1.035463  0
H  H19  1  0.62992949  0.50721576  0.90005330  1  0  0.122898  0  0.972073  0  0  0.140565  0  1.0346  0  0  0.143337  0  1.033269  0  0  0.094631  0.138671  0  1.035453  0
H  H20  1  0.12993048  0.50721599  0.59994679  1  0  0.122907  0  0.972053  0  0  0.140562  0  1.034593  0  0  0.143332  0  1.033266  0  0  0.094632  0.138668  0  1.035447  0
H  H21  1  0.37006530  0.49278329  0.09994627  1  0  0.122929  0  0.972035  0  0  0.140588  0  1.034569  0  0  0.143359  0  1.03324  0  0  0.094636  0.138693  0  1.035422  0
H  H22  1  0.89934838  0.38871901  0.48521644  1  0  0.126049  0  0.970397  0  0  0.141664  0  1.039134  0  0  0.14395  0  1.038339  0  0  0.096019  0.140156  0  1.039355  0
H  H23  1  0.60065384  0.61127812  0.98521849  1  0  0.12604  0  0.97041  0  0  0.141664  0  1.03913  0  0  0.143949  0  1.038337  0  0  0.096022  0.140155  0  1.039351  0
H  H24  1  0.10065384  0.61127841  0.51478159  1  0  0.126021  0  0.970411  0  0  0.141642  0  1.039135  0  0  0.143929  0  1.038339  0  0  0.096013  0.140132  0  1.039357  0
H  H25  1  0.39934477  0.38872176  0.01478108  1  0  0.126035  0  0.970416  0  0  0.141645  0  1.039149  0  0  0.143932  0  1.038353  0  0  0.096012  0.140136  0  1.039371  0
H  H26  1  0.82398621  0.35162816  0.36072590  1  0  0.12672  0  0.968568  0  0  0.146341  0  1.03371  0  0  0.147558  0  1.034028  0  0  0.095335  0.144468  0  1.035813  0
H  H27  1  0.67601476  0.64836824  0.86072711  1  0  0.126684  0  0.96862  0  0  0.146246  0  1.033821  0  0  0.147459  0  1.034143  0  0  0.095274  0.144373  0  1.035924  0
H  H28  1  0.17601383  0.64836678  0.63927290  1  0  0.126666  0  0.968669  0  0  0.146232  0  1.033862  0  0  0.147442  0  1.034187  0  0  0.095262  0.14436  0  1.035963  0
H  H29  1  0.32398351  0.35163082  0.13927169  1  0  0.126715  0  0.968654  0  0  0.146272  0  1.033853  0  0  0.147485  0  1.034175  0  0  0.095292  0.144399  0  1.035956  0
H  H30  1  0.90285105  0.03313958  0.27927217  1  0  0.082628  0  0.940971  0  0  0.089856  0  1.007439  0  0  0.091728  0  1.006154  0  0  0.117518  0.088602  0  1.007864  0
H  H31  1  0.59715462  0.96686513  0.77927487  1  0  0.082613  0  0.94097  0  0  0.089801  0  1.007484  0  0  0.091673  0  1.006188  0  0  0.117505  0.088552  0  1.00791  0
H  H32  1  0.09715354  0.96686361  0.72072509  1  0  0.082625  0  0.941005  0  0  0.089833  0  1.007501  0  0  0.091709  0  1.006196  0  0  0.117496  0.08858  0  1.007926  0
H  H33  1  0.40284133  0.03313393  0.22072777  1  0  0.082596  0  0.941007  0  0  0.089792  0  1.007519  0  0  0.091675  0  1.006195  0  0  0.117495  0.088542  0  1.007946  0
H  H34  1  0.89185476  0.94768409  0.10570401  1  0  0.106658  0  0.97762  0  0  0.113915  0  1.040569  0  0  0.116657  0  1.040497  0  0  0.107107  0.111572  0  1.041741  0
H  H35  1  0.60813745  0.05231248  0.60570239  1  0  0.106696  0  0.977599  0  0  0.113964  0  1.040511  0  0  0.116706  0  1.040442  0  0  0.107156  0.111617  0  1.041689  0
H  H36  1  0.10813636  0.05231166  0.89429556  1  0  0.106636  0  0.977669  0  0  0.113909  0  1.040593  0  0  0.11665  0  1.040524  0  0  0.107103  0.111563  0  1.041771  0
H  H37  1  0.39186048  0.94768575  0.39429795  1  0  0.106674  0  0.977604  0  0  0.113928  0  1.040546  0  0  0.116668  0  1.040478  0  0  0.107131  0.111582  0  1.041723  0
H  H38  1  0.98200063  0.77796462  0.08497733  1  0  0.099563  0  0.940673  0  0  0.113057  0  0.999875  0  0  0.115538  0  0.99826  0  0  0.10968  0.111283  0  1.001031  0
H  H39  1  0.51799795  0.22203610  0.58497956  1  0  0.099589  0  0.940757  0  0  0.11311  0  0.999913  0  0  0.115592  0  0.998295  0  0  0.109696  0.111338  0  1.001066  0
H  H40  1  0.01799614  0.22203361  0.91501916  1  0  0.099579  0  0.940697  0  0  0.113086  0  0.999864  0  0  0.115568  0  0.998246  0  0  0.109678  0.111296  0  1.00104  0
H  H41  1  0.48200133  0.77796544  0.41502308  1  0  0.099599  0  0.940706  0  0  0.113086  0  0.999895  0  0  0.115567  0  0.998281  0  0  0.109695  0.111313  0  1.001049  0
H  H42  1  0.08968493  0.79612044  0.40892041  1  0  0.071987  0  0.974661  0  0  0.073948  0  1.053183  0  0  0.076783  0  1.050231  0  0  0.113244  0.071859  0  1.055647  0
H  H43  1  0.41031657  0.20388274  0.90892312  1  0  0.071955  0  0.97462  0  0  0.073949  0  1.05312  0  0  0.076784  0  1.050168  0  0  0.113233  0.071858  0  1.05559  0
H  H44  1  0.91031899  0.20388110  0.59107608  1  0  0.071979  0  0.974612  0  0  0.073939  0  1.053135  0  0  0.076775  0  1.050181  0  0  0.113231  0.071838  0  1.055634  0
H  H45  1  0.58968836  0.79612127  0.09108028  1  0  0.071964  0  0.974691  0  0  0.073966  0  1.053172  0  0  0.076802  0  1.050221  0  0  0.113251  0.071867  0  1.055665  0
H  H46  1  0.20923396  0.57572181  0.14880489  1  0  0.124099  0  0.971672  0  0  0.140586  0  1.038742  0  0  0.143208  0  1.037431  0  0  0.096507  0.138863  0  1.039239  0
H  H47  1  0.29076506  0.42427990  0.64880609  1  0  0.124077  0  0.971626  0  0  0.140563  0  1.038696  0  0  0.143192  0  1.037376  0  0  0.096506  0.138841  0  1.039194  0
H  H48  1  0.79076431  0.42427724  0.85119237  1  0  0.124053  0  0.971659  0  0  0.140554  0  1.038725  0  0  0.143167  0  1.037419  0  0  0.096508  0.138831  0  1.039221  0
H  H49  1  0.70923722  0.57572328  0.35119271  1  0  0.124074  0  0.971654  0  0  0.140572  0  1.038711  0  0  0.143191  0  1.0374  0  0  0.096501  0.138849  0  1.039212  0
H  H50  1  0.21198620  0.70656137  0.09423052  1  0  0.12332  0  0.961576  0  0  0.143135  0  1.024194  0  0  0.143294  0  1.027093  0  0  0.094955  0.142873  0  1.022229  0
H  H51  1  0.28801007  0.29343626  0.59422792  1  0  0.123343  0  0.961566  0  0  0.143135  0  1.024214  0  0  0.143294  0  1.027114  0  0  0.094942  0.142875  0  1.022247  0
H  H52  1  0.78800724  0.29343438  0.90577135  1  0  0.123306  0  0.961565  0  0  0.143107  0  1.024197  0  0  0.143266  0  1.027096  0  0  0.094954  0.142846  0  1.02223  0
H  H53  1  0.71199099  0.70656115  0.40577088  1  0  0.123352  0  0.961571  0  0  0.143146  0  1.02421  0  0  0.143304  0  1.027109  0  0  0.094952  0.142884  0  1.022244  0
H  H54  1  0.03301697  0.59594771  0.09111201  1  0  0.123449  0  0.938876  0  0  0.14623  0  0.997581  0  0  0.147841  0  0.997021  0  0  0.098693  0.145254  0  0.997527  0
H  H55  1  0.46698563  0.40405405  0.59111385  1  0  0.123449  0  0.938834  0  0  0.146233  0  0.997535  0  0  0.147846  0  0.996974  0  0  0.098708  0.145258  0  0.99748  0
H  H56  1  0.96698394  0.40405217  0.90888449  1  0  0.123396  0  0.938845  0  0  0.146177  0  0.99756  0  0  0.147791  0  0.996997  0  0  0.098692  0.145202  0  0.997504  0
H  H57  1  0.53301794  0.59594666  0.40888649  1  0  0.123468  0  0.93883  0  0  0.146252  0  0.997534  0  0  0.147864  0  0.996973  0  0  0.098713  0.145276  0  0.99748  0
C  C58  1  0.07268654  0.24644259  0.41281933  1  0  0.089487  0  3.669346  0  0  0.051084  0  3.917849  0  0  0.058012  0  3.935358  0  0  0.046628  0.046921  0  3.906024  0
C  C59  1  0.42731557  0.75355647  0.91282416  1  0  0.089439  0  3.669368  0  0  0.05114  0  3.91784  0  0  0.058058  0  3.935362  0  0  0.0467  0.046973  0  3.906017  0
C  C60  1  0.92731303  0.75355400  0.58718100  1  0  0.089512  0  3.66941  0  0  0.051194  0  3.917872  0  0  0.058117  0  3.935386  0  0  0.046722  0.04703  0  3.906045  0
C  C61  1  0.57268718  0.24644507  0.08718155  1  0  0.08944  0  3.669327  0  0  0.051088  0  3.91784  0  0  0.05801  0  3.935356  0  0  0.046686  0.046923  0  3.906019  0
C  C62  1  0.15797932  0.35080040  0.37591674  1  0  -0.043419  0  3.758354  0  0  -0.019748  0  3.987202  0  0  -0.026754  0  4.010725  0  0  -0.004303  -0.01583  0  3.971987  0
C  C63  1  0.34201872  0.64919703  0.87592397  1  0  -0.043249  0  3.758147  0  0  -0.01961  0  3.986988  0  0  -0.026599  0  4.010484  0  0  -0.004281  -0.015693  0  3.971776  0
C  C64  1  0.84201711  0.64919701  0.62408205  1  0  -0.043457  0  3.758399  0  0  -0.019791  0  3.987235  0  0  -0.026805  0  4.010775  0  0  -0.00435  -0.015874  0  3.97202  0
C  C65  1  0.65798172  0.35080450  0.12407790  1  0  -0.043306  0  3.758225  0  0  -0.019624  0  3.987094  0  0  -0.026624  0  4.010611  0  0  -0.004321  -0.015707  0  3.971883  0
C  C66  1  0.32038085  0.36646077  0.34943968  1  0  -0.029599  0  3.695658  0  0  -0.056961  0  3.941356  0  0  -0.05225  0  3.957982  0  0  -0.062831  -0.059802  0  3.929858  0
C  C67  1  0.17962023  0.63353833  0.84944627  1  0  -0.029757  0  3.69581  0  0  -0.057109  0  3.941487  0  0  -0.052401  0  3.958118  0  0  -0.062869  -0.059949  0  3.929989  0
C  C68  1  0.67961892  0.63353911  0.65055911  1  0  -0.029635  0  3.695693  0  0  -0.056993  0  3.941384  0  0  -0.05228  0  3.958008  0  0  -0.062814  -0.059834  0  3.929887  0
C  C69  1  0.82037891  0.36646568  0.15055637  1  0  -0.029663  0  3.695701  0  0  -0.057036  0  3.941375  0  0  -0.052326  0  3.958  0  0  -0.062835  -0.059877  0  3.929877  0
C  C70  1  0.38835276  0.27994229  0.36075141  1  0  -0.123502  0  3.730895  0  0  -0.134374  0  3.983153  0  0  -0.142169  0  4.004197  0  0  -0.083634  -0.12938  0  3.970165  0
C  C71  1  0.11164945  0.72005680  0.86075572  1  0  -0.123401  0  3.731005  0  0  -0.134232  0  3.983246  0  0  -0.142027  0  4.004294  0  0  -0.083602  -0.129239  0  3.970256  0
C  C72  1  0.61165115  0.72005925  0.63924892  1  0  -0.123429  0  3.730921  0  0  -0.134256  0  3.98317  0  0  -0.142051  0  4.004215  0  0  -0.083615  -0.129265  0  3.970182  0
C  C73  1  0.88835214  0.27994473  0.13924615  1  0  -0.12363  0  3.730996  0  0  -0.134473  0  3.983243  0  0  -0.142267  0  4.004285  0  0  -0.083626  -0.12948  0  3.970254  0
C  C74  1  0.29357618  0.17930531  0.39907699  1  0  0.138322  0  3.670776  0  0  0.102952  0  3.929809  0  0  0.111022  0  3.945486  0  0  0.051169  0.098126  0  3.918068  0
C  C75  1  0.20642813  0.82069623  0.89907659  1  0  0.138256  0  3.670747  0  0  0.102864  0  3.929797  0  0  0.110935  0  3.945476  0  0  0.051133  0.098041  0  3.918051  0
C  C76  1  0.70642841  0.82069788  0.60092718  1  0  0.1383  0  3.670802  0  0  0.103003  0  3.929809  0  0  0.111075  0  3.945485  0  0  0.05119  0.098168  0  3.918074  0
C  C77  1  0.79357381  0.17930613  0.10092605  1  0  0.13841  0  3.670738  0  0  0.103064  0  3.929747  0  0  0.111133  0  3.945426  0  0  0.05117  0.098239  0  3.918002  0
C  C78  1  0.07728547  0.43871608  0.36667231  1  0  0.257938  0  3.704731  0  0  0.254893  0  3.964362  0  0  0.26622  0  3.980552  0  0  0.140149  0.247515  0  3.952754  0
C  C79  1  0.42271673  0.56128301  0.86667336  1  0  0.257956  0  3.70471  0  0  0.254918  0  3.964332  0  0  0.266243  0  3.980524  0  0  0.1402  0.24754  0  3.952724  0
C  C80  1  0.92271443  0.56128133  0.63332725  1  0  0.257864  0  3.704618  0  0  0.254828  0  3.964252  0  0  0.266156  0  3.980436  0  0  0.140145  0.247451  0  3.952642  0
C  C81  1  0.57728221  0.43871770  0.13332543  1  0  0.257921  0  3.704717  0  0  0.254819  0  3.964425  0  0  0.266144  0  3.980617  0  0  0.140167  0.247442  0  3.952819  0
C  C82  1  0.90791958  0.41738298  0.40512348  1  0  -0.393413  0  3.696374  0  0  -0.471106  0  3.926274  0  0  -0.475632  0  3.932351  0  0  -0.24718  -0.467821  0  3.923154  0
C  C83  1  0.59208116  0.58261585  0.90512554  1  0  -0.393356  0  3.696432  0  0  -0.471013  0  3.926329  0  0  -0.475535  0  3.932412  0  0  -0.247145  -0.467726  0  3.923206  0
C  C84  1  0.09208100  0.58261608  0.59487455  1  0  -0.393298  0  3.696409  0  0  -0.470947  0  3.926308  0  0  -0.475465  0  3.932391  0  0  -0.247125  -0.467659  0  3.923184  0
C  C85  1  0.40791677  0.41738238  0.09487403  1  0  -0.393443  0  3.696528  0  0  -0.471044  0  3.926411  0  0  -0.475564  0  3.932493  0  0  -0.247178  -0.467754  0  3.923286  0
C  C86  1  0.94127085  0.95905958  0.26771376  1  0  0.135483  0  3.676353  0  0  0.098736  0  3.934678  0  0  0.10682  0  3.952228  0  0  0.046867  0.094475  0  3.921045  0
C  C87  1  0.55874015  0.04094679  0.76771372  1  0  0.13547  0  3.676353  0  0  0.098764  0  3.934697  0  0  0.106851  0  3.95225  0  0  0.046836  0.094497  0  3.921064  0
C  C88  1  0.05873639  0.04094443  0.73228504  1  0  0.13548  0  3.676382  0  0  0.098755  0  3.934731  0  0  0.106843  0  3.952283  0  0  0.046878  0.094492  0  3.921099  0
C  C89  1  0.44125880  0.95905392  0.23228815  1  0  0.135523  0  3.676406  0  0  0.098801  0  3.934734  0  0  0.106893  0  3.952286  0  0  0.046856  0.094532  0  3.921106  0
C  C90  1  0.93550632  0.91093445  0.17125373  1  0  -0.107069  0  3.735625  0  0  -0.118951  0  3.993453  0  0  -0.126654  0  4.01507  0  0  -0.083875  -0.114512  0  3.979816  0
C  C91  1  0.56449754  0.08906538  0.67125520  1  0  -0.107031  0  3.735646  0  0  -0.118904  0  3.993433  0  0  -0.126607  0  4.01505  0  0  -0.083819  -0.114464  0  3.979795  0
C  C92  1  0.06449426  0.08906461  0.82874430  1  0  -0.106969  0  3.735668  0  0  -0.118865  0  3.993465  0  0  -0.126566  0  4.015083  0  0  -0.083783  -0.114423  0  3.979822  0
C  C93  1  0.43550603  0.91093533  0.32874667  1  0  -0.107039  0  3.735726  0  0  -0.118908  0  3.993525  0  0  -0.126613  0  4.015149  0  0  -0.083812  -0.114466  0  3.979885  0
C  C94  1  0.98590757  0.81628712  0.16023995  1  0  -0.021581  0  3.658412  0  0  -0.05392  0  3.909766  0  0  -0.048762  0  3.926136  0  0  -0.063657  -0.057564  0  3.899284  0
C  C95  1  0.51409018  0.18371189  0.66023912  1  0  -0.021625  0  3.658509  0  0  -0.054055  0  3.909779  0  0  -0.048896  0  3.926146  0  0  -0.063728  -0.057675  0  3.899309  0
C  C96  1  0.01408886  0.18371029  0.83975808  1  0  -0.021579  0  3.658422  0  0  -0.05392  0  3.909705  0  0  -0.04876  0  3.926074  0  0  -0.063669  -0.05755  0  3.899228  0
C  C97  1  0.48591373  0.81628965  0.33976275  1  0  -0.021624  0  3.65857  0  0  -0.054021  0  3.90984  0  0  -0.04886  0  3.926208  0  0  -0.063717  -0.057644  0  3.899363  0
C  C98  1  0.04016970  0.77116332  0.24693370  1  0  -0.045243  0  3.757258  0  0  -0.022881  0  3.988748  0  0  -0.030228  0  4.012224  0  0  -0.006428  -0.019452  0  3.974306  0
C  C99  1  0.45982063  0.22883172  0.74693253  1  0  -0.045375  0  3.757537  0  0  -0.022783  0  3.98872  0  0  -0.030129  0  4.012195  0  0  -0.006427  -0.019428  0  3.974381  0
C  C100  1  0.95982027  0.22883243  0.75306587  1  0  -0.045367  0  3.757368  0  0  -0.022903  0  3.988823  0  0  -0.030252  0  4.012301  0  0  -0.006419  -0.019474  0  3.974377  0
C  C101  1  0.54018097  0.77116981  0.25306858  1  0  -0.045374  0  3.757489  0  0  -0.022737  0  3.988676  0  0  -0.030084  0  4.012152  0  0  -0.006423  -0.019368  0  3.974314  0
C  C102  1  0.04369840  0.82653230  0.34062070  1  0  0.104158  0  3.6818  0  0  0.064515  0  3.933459  0  0  0.072097  0  3.950768  0  0  0.051339  0.059915  0  3.922304  0
C  C103  1  0.45630554  0.17347094  0.84062032  1  0  0.10413  0  3.681702  0  0  0.0644  0  3.933325  0  0  0.071981  0  3.950637  0  0  0.051304  0.059822  0  3.922186  0
C  C104  1  0.95630054  0.17346841  0.65937810  1  0  0.104142  0  3.681693  0  0  0.064498  0  3.933354  0  0  0.072081  0  3.950664  0  0  0.051308  0.059896  0  3.922198  0
C  C105  1  0.54369557  0.82653225  0.15938078  1  0  0.104132  0  3.681822  0  0  0.064386  0  3.93343  0  0  0.071968  0  3.950741  0  0  0.051284  0.059802  0  3.922284  0
C  C106  1  0.09391761  0.67073586  0.24031176  1  0  0.263092  0  3.699759  0  0  0.257061  0  3.965228  0  0  0.269516  0  3.979614  0  0  0.142039  0.248519  0  3.955329  0
C  C107  1  0.40607422  0.32926001  0.74030829  1  0  0.263099  0  3.699783  0  0  0.256999  0  3.965244  0  0  0.269456  0  3.979628  0  0  0.142017  0.248477  0  3.955356  0
C  C108  1  0.90607317  0.32925907  0.75968858  1  0  0.263291  0  3.69958  0  0  0.257055  0  3.965321  0  0  0.269509  0  3.979704  0  0  0.142071  0.248515  0  3.955419  0
C  C109  1  0.59392506  0.67074152  0.25968897  1  0  0.263164  0  3.699646  0  0  0.256947  0  3.965259  0  0  0.269401  0  3.979644  0  0  0.142004  0.248426  0  3.955361  0
C  C110  1  0.14000790  0.63525792  0.13770742  1  0  -0.381652  0  3.70258  0  0  -0.46346  0  3.937302  0  0  -0.467472  0  3.943996  0  0  -0.242056  -0.460229  0  3.931878  0
C  C111  1  0.35998815  0.36474216  0.63770551  1  0  -0.381635  0  3.702499  0  0  -0.46344  0  3.93727  0  0  -0.46746  0  3.94396  0  0  -0.242057  -0.460211  0  3.931841  0
C  C112  1  0.85998738  0.36473949  0.86229214  1  0  -0.38158  0  3.702464  0  0  -0.463341  0  3.93727  0  0  -0.467348  0  3.943974  0  0  -0.242085  -0.46011  0  3.93184  0
C  C113  1  0.64001229  0.63525938  0.36229252  1  0  -0.381656  0  3.702475  0  0  -0.463438  0  3.937265  0  0  -0.467449  0  3.943963  0  0  -0.24205  -0.460212  0  3.931836  0
N  N114  1  0.13810111  0.16269232  0.42542043  1  0  -0.307531  0  3.240541  0  0  -0.234614  0  3.509146  0  0  -0.2515  0  3.526149  0  0  -0.312719  -0.223572  0  3.49696  0
N  N115  1  0.36190478  0.83730756  0.92541913  1  0  -0.307538  0  3.240592  0  0  -0.234647  0  3.509218  0  0  -0.251529  0  3.526212  0  0  -0.312736  -0.223606  0  3.497036  0
N  N116  1  0.86190328  0.83730757  0.57458451  1  0  -0.307546  0  3.240657  0  0  -0.234671  0  3.509285  0  0  -0.251551  0  3.526275  0  0  -0.312772  -0.223629  0  3.4971  0
N  N117  1  0.63809729  0.16269233  0.07458504  1  0  -0.307603  0  3.240695  0  0  -0.234721  0  3.50933  0  0  -0.251606  0  3.526334  0  0  -0.312775  -0.22368  0  3.497144  0
N  N118  1  0.16019674  0.53079682  0.32483956  1  0  -0.239426  0  3.108173  0  0  -0.209238  0  3.390355  0  0  -0.222991  0  3.411081  0  0  -0.202797  -0.199269  0  3.375099  0
N  N119  1  0.33980357  0.46920312  0.82483994  1  0  -0.239465  0  3.108144  0  0  -0.209292  0  3.390345  0  0  -0.223046  0  3.411076  0  0  -0.202843  -0.199323  0  3.375087  0
N  N120  1  0.83980085  0.46920059  0.67515847  1  0  -0.239318  0  3.108084  0  0  -0.209145  0  3.390275  0  0  -0.222895  0  3.410998  0  0  -0.20278  -0.199178  0  3.375019  0
N  N121  1  0.66019190  0.53079758  0.17515963  1  0  -0.239399  0  3.108108  0  0  -0.209193  0  3.390303  0  0  -0.222943  0  3.411026  0  0  -0.2028  -0.199225  0  3.375047  0
N  N122  1  0.09751560  0.61759138  0.32529803  1  0  -0.240464  0  3.138227  0  0  -0.207273  0  3.421582  0  0  -0.221847  0  3.442167  0  0  -0.198574  -0.196741  0  3.406625  0
N  N123  1  0.40248389  0.38240939  0.82529685  1  0  -0.2404  0  3.138105  0  0  -0.207211  0  3.421487  0  0  -0.221788  0  3.442074  0  0  -0.198531  -0.196675  0  3.406519  0
N  N124  1  0.90248199  0.38240603  0.67470154  1  0  -0.240576  0  3.138127  0  0  -0.207327  0  3.421567  0  0  -0.221902  0  3.442154  0  0  -0.198576  -0.196794  0  3.406613  0
N  N125  1  0.59751178  0.61759461  0.17470348  1  0  -0.240463  0  3.138162  0  0  -0.207242  0  3.421581  0  0  -0.221816  0  3.442166  0  0  -0.198531  -0.196708  0  3.406618  0
N  N126  1  0.99529264  0.91760926  0.35130160  1  0  -0.313411  0  3.29533  0  0  -0.233265  0  3.558598  0  0  -0.251854  0  3.577125  0  0  -0.319571  -0.220304  0  3.544896  0
N  N127  1  0.50471901  0.08239623  0.85130158  1  0  -0.313276  0  3.295014  0  0  -0.233175  0  3.558329  0  0  -0.251764  0  3.576858  0  0  -0.319532  -0.220213  0  3.544627  0
N  N128  1  0.00470944  0.08239063  0.64869643  1  0  -0.313404  0  3.295232  0  0  -0.233284  0  3.55852  0  0  -0.251875  0  3.577047  0  0  -0.319585  -0.220321  0  3.54482  0
N  N129  1  0.49528442  0.91760696  0.14869876  1  0  -0.313329  0  3.295156  0  0  -0.233208  0  3.558458  0  0  -0.251799  0  3.576985  0  0  -0.319537  -0.220246  0  3.544756  0
N  N130  1  0.22910119  0.97477333  0.53209389  1  0  -0.560909  0  2.707532  0  0  -0.533917  0  3.010997  0  0  -0.554805  0  3.018564  0  0  -0.290762  -0.519456  0  3.005119  0
N  N131  1  0.27090385  0.02522848  0.03209514  1  0  -0.560878  0  2.707835  0  0  -0.533905  0  3.011279  0  0  -0.554791  0  3.018842  0  0  -0.290767  -0.519443  0  3.005399  0
N  N132  1  0.77090470  0.02522739  0.46790414  1  0  -0.560949  0  2.70761  0  0  -0.533928  0  3.011065  0  0  -0.554816  0  3.018627  0  0  -0.29075  -0.519467  0  3.005188  0
N  N133  1  0.72910190  0.97477471  0.96790750  1  0  -0.560915  0  2.707727  0  0  -0.533935  0  3.011193  0  0  -0.55482  0  3.018747  0  0  -0.290767  -0.519475  0  3.005317  0
N  N134  1  0.28025349  0.91084603  0.57945268  1  0  0.375425  0  4.285186  0  0  0.413495  0  4.568541  0  0  0.428999  0  4.597555  0  0  0.06293  0.403541  0  4.548205  0
N  N135  1  0.21974581  0.08915326  0.07944856  1  0  0.375316  0  4.285319  0  0  0.413446  0  4.568608  0  0  0.428953  0  4.597616  0  0  0.062902  0.403492  0  4.548275  0
N  N136  1  0.71974791  0.08915220  0.42054535  1  0  0.375366  0  4.285265  0  0  0.413451  0  4.568603  0  0  0.42896  0  4.597612  0  0  0.062858  0.403501  0  4.548264  0
N  N137  1  0.78025477  0.91084580  0.92055023  1  0  0.375342  0  4.285368  0  0  0.413432  0  4.568697  0  0  0.428938  0  4.597706  0  0  0.062903  0.403478  0  4.548363  0
N  N138  1  0.33503327  0.84941595  0.62493155  1  0  -0.459492  0  2.412139  0  0  -0.458106  0  2.648316  0  0  -0.467493  0  2.659266  0  0  -0.234898  -0.451239  0  2.641237  0
N  N139  1  0.16495851  0.15058495  0.12492515  1  0  -0.459405  0  2.411942  0  0  -0.45806  0  2.648089  0  0  -0.467468  0  2.659064  0  0  -0.234856  -0.451191  0  2.64101  0
N  N140  1  0.66496398  0.15058063  0.37506725  1  0  -0.459383  0  2.412115  0  0  -0.458047  0  2.648296  0  0  -0.46744  0  2.659257  0  0  -0.234836  -0.451177  0  2.641213  0
N  N141  1  0.83503281  0.84941410  0.87507135  1  0  -0.459399  0  2.412116  0  0  -0.458025  0  2.648287  0  0  -0.467422  0  2.65925  0  0  -0.234862  -0.451158  0  2.641208  0
