# generated using pymatgen
data_CuH30C40S2(NO4)2
_symmetry_space_group_name_H-M   'P 1'
_cell_length_a   7.92970687
_cell_length_b   9.94945555
_cell_length_c   11.35100505
_cell_angle_alpha   92.85005605
_cell_angle_beta   96.09394418
_cell_angle_gamma   104.33787719
_symmetry_Int_Tables_number   1
_chemical_formula_structural   CuH30C40S2(NO4)2
_chemical_formula_sum   'Cu1 H30 C40 S2 N2 O8'
_cell_volume   860.06480781
_cell_formula_units_Z   1
loop_
 _symmetry_equiv_pos_site_id
 _symmetry_equiv_pos_as_xyz
  1  'x, y, z'
loop_
 _atom_site_type_symbol
 _atom_site_label
 _atom_site_symmetry_multiplicity
 _atom_site_fract_x
 _atom_site_fract_y
 _atom_site_fract_z
 _atom_site_occupancy
 _atom_site_hle17_ddec_charge
 _atom_site_hle17_ddec_spin_density
 _atom_site_hle17_ddec_sum_bond_order
 _atom_site_hle17_magmom
 _atom_site_hse06_10hf_ddec_charge
 _atom_site_hse06_10hf_ddec_spin_density
 _atom_site_hse06_10hf_ddec_sum_bond_order
 _atom_site_hse06_10hf_magmom
 _atom_site_hse06_ddec_charge
 _atom_site_hse06_ddec_spin_density
 _atom_site_hse06_ddec_sum_bond_order
 _atom_site_hse06_magmom
 _atom_site_pbe_cm5_charge
 _atom_site_pbe_ddec_charge
 _atom_site_pbe_ddec_spin_density
 _atom_site_pbe_ddec_sum_bond_order
 _atom_site_pbe_magmom
Cu  Cu0  1  0.50000399  0.00000170  0.00000017  1  0.821268  0.672506  1.777322  0.483  0.797491  0.75434  2.155011  0.591  0.885198  0.820239  2.089089  0.672  0.744342  0.744943  0.709838  2.200253  0.541
H  H1  1  0.29299212  0.49541030  0.07172550  1  0.115012  0.000488  0.947096  0.0  0.125319  0.000505  1.00616  0.0  0.128452  0.000372  1.005156  0.0  0.112683  0.123104  0.000575  1.006964  0.001
H  H2  1  0.70701163  0.50459103  0.92826278  1  0.114948  0.000488  0.947098  0.0  0.125334  0.000505  1.006063  0.0  0.128466  0.000372  1.005057  0.0  0.112663  0.123115  0.000575  1.006882  0.001
H  H3  1  0.88715310  0.68481124  0.92203689  1  0.11738  0.000512  0.95427  0.0  0.126526  0.000513  1.015977  0.001  0.130199  0.000378  1.014039  0.0  0.111142  0.12389  0.000607  1.017485  0.001
H  H4  1  0.11284969  0.31519436  0.07796912  1  0.117392  0.000518  0.954244  0.0  0.126538  0.000513  1.015936  0.001  0.13021  0.000379  1.013999  0.0  0.111158  0.123894  0.000607  1.017457  0.001
H  H5  1  0.11514066  0.90130670  0.92662903  1  0.085117  0.000937  0.953705  0.002  0.097029  0.00081  1.015558  0.001  0.098195  0.000569  1.014191  0.001  0.122765  0.095935  0.001002  1.016694  0.001
H  H6  1  0.88486053  0.09869786  0.07337682  1  0.084982  0.000937  0.953771  0.002  0.097  0.00081  1.015514  0.001  0.098168  0.000569  1.014145  0.001  0.122765  0.095908  0.001003  1.016651  0.001
H  H7  1  0.73472615  0.21193106  0.37583252  1  0.094163  3.2e-05  0.99116  0.0  0.103186  7.7e-05  1.054838  0.0  0.106163  5.2e-05  1.054112  0.0  0.09797  0.101097  0.000105  1.055208  0.0
H  H8  1  0.26527036  0.78806721  0.62416394  1  0.094083  2.9e-05  0.991306  0.0  0.103178  7.7e-05  1.054914  0.0  0.106136  5.2e-05  1.054205  0.0  0.097942  0.101089  0.000105  1.055283  0.0
H  H9  1  0.05463477  0.23609794  0.41953172  1  0.086212  1.3e-05  0.953413  0.0  0.0965  7e-06  1.015687  0.0  0.098349  3e-06  1.015899  0.0  0.09967  0.095176  1e-05  1.015505  0.0
H  H10  1  0.94536164  0.76389616  0.58046280  1  0.086314  1.2e-05  0.953518  0.0  0.096592  7e-06  1.015779  0.0  0.098437  3e-06  1.015993  0.0  0.099733  0.095265  1e-05  1.015596  0.0
H  H11  1  0.26643550  0.45602840  0.38241765  1  0.074795  -2.2e-05  1.017712  0.0  0.082271  -6e-06  1.088734  0.0  0.084848  -7e-06  1.08801  0.0  0.088079  0.080268  4e-06  1.089514  0.0
H  H12  1  0.73356379  0.54396673  0.61757800  1  0.074718  -2.3e-05  1.017789  0.0  0.082213  -6e-06  1.088795  0.0  0.084787  -8e-06  1.088073  0.0  0.088051  0.080228  4e-06  1.089553  0.0
H  H13  1  0.15664386  0.64774196  0.29781388  1  0.098632  4e-06  0.947515  0.0  0.108569  3e-06  1.008179  0.0  0.111847  2e-06  1.00598  0.0  0.105739  0.106223  6e-06  1.009775  0.0
H  H14  1  0.84335651  0.35225633  0.70218725  1  0.098643  1e-06  0.947611  0.0  0.108579  3e-06  1.008264  0.0  0.111859  2e-06  1.006063  0.0  0.105754  0.106235  5e-06  1.009859  0.0
H  H15  1  0.50345255  0.72034555  0.06685242  1  0.097092  0.000939  0.970804  0.002  0.1004  0.000779  1.041872  0.001  0.103294  0.000523  1.03804  0.001  0.11984  0.098051  0.000953  1.044951  0.002
H  H16  1  0.49654745  0.27965581  0.93314001  1  0.097138  0.00094  0.970817  0.002  0.100454  0.000779  1.041861  0.001  0.10335  0.000523  1.03803  0.001  0.119811  0.0981  0.000953  1.044945  0.002
H  H17  1  0.51574459  0.39241380  0.53508560  1  0.081689  9e-05  0.998246  0.0  0.087475  3.1e-05  1.072846  0.0  0.090361  1.4e-05  1.071399  0.0  0.093471  0.085543  5.9e-05  1.073641  0.0
H  H18  1  0.48424789  0.60758762  0.46491248  1  0.081664  9.5e-05  0.998231  0.0  0.087448  3.1e-05  1.072837  0.0  0.090336  1.4e-05  1.071386  0.0  0.093461  0.085516  5.9e-05  1.073635  0.0
H  H19  1  0.38194138  0.20915343  0.65977621  1  0.095568  -0.000172  0.972605  0.0  0.104197  4.8e-05  1.035037  0.0  0.107381  2.1e-05  1.03336  0.0  0.099859  0.101843  7.4e-05  1.036393  0.0
H  H20  1  0.61805145  0.79084904  0.34022282  1  0.095656  -0.000173  0.972519  0.0  0.104271  4.8e-05  1.034957  0.0  0.107457  2.1e-05  1.033275  0.0  0.099864  0.101921  7.4e-05  1.036318  0.0
H  H21  1  0.22522005  0.97214976  0.56631859  1  0.086063  9.3e-05  0.96237  0.0  0.100162  4.2e-05  1.019426  0.0  0.102629  2.4e-05  1.018254  0.0  0.10139  0.098538  6.1e-05  1.019998  0.0
H  H22  1  0.77477790  0.02785272  0.43368520  1  0.086027  9.4e-05  0.962453  0.0  0.100168  4.2e-05  1.019441  0.0  0.102634  2.4e-05  1.018273  0.0  0.101393  0.098546  6.1e-05  1.020015  0.0
H  H23  1  0.22599948  0.91619682  0.35059785  1  0.102634  -0.000219  0.954904  0.0  0.112498  1.7e-05  1.014698  0.0  0.116152  3e-06  1.012491  0.0  0.103597  0.109867  3.2e-05  1.016349  0.0
H  H24  1  0.77400718  0.08379730  0.64940619  1  0.102633  -0.000217  0.954825  0.0  0.112489  1.7e-05  1.014624  0.0  0.11614  3e-06  1.012422  0.0  0.103587  0.109857  3.2e-05  1.016279  0.0
H  H25  1  0.83886806  0.85202943  0.08931727  1  0.1023  3e-05  0.964382  0.0  0.114782  1.8e-05  1.03962  0.0  0.115657  -7e-06  1.038698  0.0  0.101078  0.113672  4.1e-05  1.040756  0.0
H  H26  1  0.16113186  0.14797514  0.91068849  1  0.102362  3e-05  0.964335  0.0  0.114852  1.8e-05  1.039545  0.0  0.115718  -7e-06  1.038646  0.0  0.101098  0.113745  4.1e-05  1.040669  0.0
H  H27  1  0.00936068  0.97030364  0.18841957  1  0.102378  2.4e-05  0.960606  0.0  0.118646  3e-05  1.026626  0.0  0.119648  3.1e-05  1.026178  0.0  0.102174  0.117906  3e-05  1.026794  0.0
H  H28  1  0.99063878  0.02969570  0.81158330  1  0.10238  2.9e-05  0.960541  0.0  0.118652  3e-05  1.02656  0.0  0.119655  3.2e-05  1.026111  0.0  0.102158  0.117912  3e-05  1.026731  0.0
H  H29  1  0.78957261  0.91718278  0.22765988  1  0.093649  -9.2e-05  0.949403  0.0  0.111568  -9.4e-05  1.016561  0.0  0.112246  -9.6e-05  1.015533  0.0  0.101747  0.111107  -8.4e-05  1.016787  0.0
H  H30  1  0.21043074  0.08282072  0.77234344  1  0.093632  -0.000101  0.949413  0.0  0.111588  -9.5e-05  1.016533  0.0  0.112269  -9.6e-05  1.015503  0.0  0.101736  0.111121  -8.4e-05  1.016764  0.0
C  C31  1  0.24451674  0.58108271  0.03799922  1  -0.135171  0.0084  3.667575  0.009  -0.154482  0.00348  3.915407  0.004  -0.161468  0.003216  3.935053  0.004  -0.073876  -0.149939  0.003685  3.902187  0.004
C  C32  1  0.75548383  0.41891656  0.96199052  1  -0.135038  0.008409  3.66758  0.009  -0.154385  0.003483  3.915343  0.004  -0.161377  0.003214  3.935007  0.004  -0.073824  -0.149844  0.003685  3.902125  0.004
C  C33  1  0.06652015  0.56653369  0.99825701  1  0.087682  -0.010214  3.746199  -0.006  0.098252  -0.004012  3.979944  -0.002  0.101972  -0.004577  4.001828  -0.003  0.013191  0.095823  -0.003518  3.965079  -0.002
C  C34  1  0.93347998  0.43347186  0.00173824  1  0.087541  -0.010227  3.746152  -0.006  0.098139  -0.004017  3.979877  -0.002  0.10186  -0.004572  4.001761  -0.003  0.013089  0.09571  -0.003518  3.965014  -0.002
C  C35  1  0.02085549  0.68462147  0.95566062  1  -0.140106  0.008419  3.673257  0.009  -0.158797  0.003514  3.918032  0.004  -0.166195  0.003231  3.938441  0.004  -0.073882  -0.154097  0.00365  3.904376  0.004
C  C36  1  0.97914402  0.31538202  0.04433891  1  -0.140083  0.008413  3.672987  0.009  -0.158773  0.003517  3.91775  0.004  -0.166173  0.003229  3.938158  0.004  -0.073877  -0.154074  0.003651  3.904092  0.004
C  C37  1  0.14914158  0.80825043  0.95646141  1  0.138874  -0.010704  3.67459  -0.007  0.111942  -0.002435  3.922571  -0.001  0.121093  -0.004059  3.941436  -0.003  0.05238  0.10612  -0.001172  3.910118  0.0
C  C38  1  0.85085315  0.19174997  0.04354119  1  0.138956  -0.010705  3.674577  -0.007  0.111943  -0.002437  3.922532  -0.001  0.121096  -0.004057  3.941393  -0.003  0.05238  0.106122  -0.001172  3.910077  0.0
C  C39  1  0.88425540  0.53892245  0.28849881  1  -0.131712  -1.8e-05  3.786173  0.0  -0.117008  -1e-06  4.02714  0.0  -0.127863  -2.1e-05  4.050931  0.0  -0.026772  -0.109987  -1.8e-05  4.011061  0.0
C  C40  1  0.11574404  0.46107688  0.71150231  1  -0.131702  -2.4e-05  3.786073  0.0  -0.117007  -4e-06  4.026996  0.0  -0.127869  -1.7e-05  4.050795  0.0  -0.026732  -0.109988  -1.8e-05  4.010921  0.0
C  C41  1  0.76270272  0.41515769  0.31205401  1  0.058117  0.000149  3.718377  0.0  0.071275  4.1e-05  3.971228  0.0  0.076096  3e-05  3.993284  0.0  0.006023  0.068201  0.000118  3.95612  0.0
C  C42  1  0.23729925  0.58484163  0.68794640  1  0.058064  0.000136  3.718298  0.0  0.071217  4.4e-05  3.971177  0.0  0.076036  2.8e-05  3.993234  0.0  0.00599  0.068142  0.000118  3.956069  0.0
C  C43  1  0.82762673  0.30758720  0.35943691  1  -0.12773  0.000143  3.753943  0.0  -0.147862  5.4e-05  4.003569  0.0  -0.153316  2.9e-05  4.024494  0.0  -0.097767  -0.144049  5.2e-05  3.988793  0.0
C  C44  1  0.17237395  0.69241211  0.64056165  1  -0.127634  0.000159  3.754137  0.0  -0.147816  5.2e-05  4.003726  0.0  -0.153253  2.8e-05  4.024663  0.0  -0.097755  -0.144001  5.2e-05  3.988952  0.0
C  C45  1  0.00686345  0.32169990  0.38407504  1  -0.024515  -0.000195  3.735979  0.0  -0.038857  -6e-05  3.984386  0.0  -0.036546  -8.4e-05  4.003544  0.0  -0.0818  -0.040294  -4.7e-05  3.971051  0.0
C  C46  1  0.99313901  0.67829729  0.61591827  1  -0.024656  -0.000208  3.73615  0.0  -0.03899  -6.1e-05  3.984584  0.0  -0.036677  -8.2e-05  4.003735  0.0  -0.081855  -0.040427  -4.7e-05  3.971251  0.0
C  C47  1  0.12626087  0.44479150  0.36309388  1  -0.081682  0.00018  3.769136  0.0  -0.09738  6.9e-05  4.024343  0.0  -0.10172  5.6e-05  4.045905  0.0  -0.099248  -0.094603  5.9e-05  4.010181  0.0
C  C48  1  0.87373784  0.55520572  0.63690269  1  -0.081541  0.000177  3.769127  0.0  -0.097262  7.1e-05  4.024344  0.0  -0.101596  5.7e-05  4.045905  0.0  -0.099198  -0.094499  5.9e-05  4.010169  0.0
C  C49  1  0.06495003  0.55205876  0.31590573  1  -0.054319  -4.2e-05  3.746156  0.0  -0.081258  -6e-06  4.001444  0.0  -0.078955  -2.8e-05  4.020731  0.0  -0.084195  -0.08278  3.2e-05  3.988485  0.0
C  C50  1  0.93505031  0.44793951  0.68409276  1  -0.054353  -2e-05  3.746352  0.0  -0.081304  -6e-06  4.001648  0.0  -0.078999  -3.3e-05  4.020934  0.0  -0.084236  -0.082829  3.2e-05  3.988698  0.0
C  C51  1  0.82181958  0.65073335  0.23260599  1  0.571098  2.5e-05  3.828526  0.0  0.517908  1.9e-05  4.125935  0.0  0.551502  1.3e-05  4.118149  0.0  0.224857  0.495336  1.9e-05  4.130402  0.0
C  C52  1  0.17817933  0.34926810  0.76740046  1  0.571056  2.5e-05  3.828589  0.0  0.517943  1.9e-05  4.125873  0.0  0.551547  1.4e-05  4.118088  0.0  0.224821  0.495346  1.9e-05  4.130339  0.0
C  C53  1  0.36564435  0.70797990  0.03527890  1  0.130035  -0.011407  3.672669  -0.008  0.099316  -0.002956  3.930442  -0.002  0.108617  -0.004598  3.947207  -0.003  0.049094  0.093358  -0.001681  3.919536  -0.001
C  C54  1  0.63435435  0.29201732  0.96471679  1  0.129849  -0.011417  3.672642  -0.008  0.099101  -0.002959  3.93044  -0.002  0.108398  -0.004595  3.947209  -0.003  0.049074  0.093149  -0.001681  3.919529  -0.001
C  C55  1  0.45008460  0.25869746  0.37209556  1  -0.002343  0.003707  3.764444  0.004  0.016846  0.001694  4.007821  0.002  0.016118  0.001279  4.031421  0.001  -0.012721  0.017208  0.002151  3.991908  0.002
C  C56  1  0.54991667  0.74129977  0.62790295  1  -0.002398  0.003709  3.764342  0.004  0.016789  0.001694  4.007736  0.002  0.016059  0.001278  4.031337  0.001  -0.012731  0.017149  0.002151  3.991813  0.002
C  C57  1  0.45307066  0.28799873  0.49447843  1  -0.100103  -0.003284  3.759858  -0.002  -0.119806  -0.000814  4.008237  -0.001  -0.122042  -0.001084  4.030237  -0.001  -0.090477  -0.118068  -0.000627  3.993179  0.0
C  C58  1  0.54692840  0.71199954  0.50551997  1  -0.100008  -0.00331  3.759792  -0.002  -0.119718  -0.000814  4.008179  -0.001  -0.121952  -0.001082  4.030176  -0.001  -0.090481  -0.117983  -0.000628  3.993128  0.0
C  C59  1  0.37506106  0.18488994  0.56450626  1  -0.066776  0.005564  3.757159  0.005  -0.082947  0.002043  4.010866  0.002  -0.085205  0.001501  4.031791  0.001  -0.094361  -0.081582  0.002647  3.996912  0.002
C  C60  1  0.62493145  0.81511148  0.43549358  1  -0.066872  0.005573  3.757002  0.005  -0.083029  0.002042  4.010733  0.002  -0.085286  0.0015  4.031652  0.001  -0.09431  -0.081665  0.002648  3.99679  0.002
C  C61  1  0.28946691  0.05208997  0.51204673  1  -0.054666  -0.004521  3.761035  -0.003  -0.070759  -0.000934  4.014424  -0.001  -0.071204  -0.001158  4.03514  -0.001  -0.08699  -0.070392  -0.000771  4.00049  -0.001
C  C62  1  0.71053198  0.94791146  0.48795796  1  -0.054636  -0.00452  3.760993  -0.003  -0.070752  -0.000932  4.014365  -0.001  -0.071198  -0.001159  4.03508  -0.001  -0.086998  -0.070387  -0.000771  4.000436  -0.001
C  C63  1  0.28818380  0.02096946  0.39085995  1  -0.087497  0.005076  3.732207  0.005  -0.108009  0.002062  3.978353  0.002  -0.110734  0.00156  3.998864  0.001  -0.087768  -0.106109  0.002523  3.964662  0.002
C  C64  1  0.71181940  0.97902572  0.60914478  1  -0.087535  0.005067  3.732347  0.005  -0.108042  0.002062  3.978504  0.002  -0.110768  0.00156  3.999015  0.001  -0.087796  -0.106152  0.002523  3.964804  0.002
C  C65  1  0.36925026  0.12386838  0.32032448  1  -0.065694  0.005486  3.727915  0.006  -0.046946  0.003747  3.955518  0.004  -0.050393  0.002101  3.973848  0.003  -0.011049  -0.044954  0.005159  3.943483  0.006
C  C66  1  0.63075044  0.87613095  0.67967672  1  -0.065679  0.005491  3.728004  0.006  -0.046919  0.003747  3.955617  0.004  -0.050362  0.002102  3.973946  0.003  -0.011063  -0.044908  0.005159  3.943541  0.006
C  C67  1  0.37743739  0.08821360  0.19112560  1  0.636992  -0.008694  3.942784  -0.008  0.588577  -0.003063  4.255834  -0.004  0.625572  -0.003605  4.247403  -0.004  0.194271  0.563673  -0.002451  4.260909  -0.004
C  C68  1  0.62256653  0.91178781  0.80887679  1  0.636882  -0.008697  3.942876  -0.008  0.588416  -0.003064  4.256007  -0.004  0.625408  -0.003605  4.247585  -0.004  0.194193  0.563507  -0.002451  4.261074  -0.004
C  C69  1  0.89061660  0.88505327  0.18250554  1  -0.089619  3.7e-05  3.593976  0.0  -0.194225  3.4e-05  3.865435  0.0  -0.186489  -2e-05  3.867584  0.0  -0.149028  -0.199068  8.2e-05  3.863928  0.0
C  C70  1  0.10938174  0.11495439  0.81749584  1  -0.089695  4.3e-05  3.594055  0.0  -0.194296  3.5e-05  3.865471  0.0  -0.186564  -2e-05  3.867627  0.0  -0.149014  -0.19916  8.2e-05  3.863947  0.0
S  S71  1  0.53429521  0.39578642  0.28180584  1  0.015893  0.00016  2.500106  0.0  0.004782  0.000194  2.835342  0.0  0.001522  6.4e-05  2.838157  0.0  0.038469  0.007435  0.000341  2.833194  0.0
S  S72  1  0.46570261  0.60421186  0.71819336  1  0.015933  0.000166  2.500134  0.0  0.004807  0.000196  2.835392  0.0  0.001543  6.4e-05  2.838204  0.0  0.03848  0.007454  0.000341  2.833251  0.0
N  N73  1  0.31867444  0.82041615  0.99601531  1  -0.288134  0.074633  3.347243  0.095  -0.236223  0.053884  3.635284  0.073  -0.26501  0.045325  3.656054  0.066  -0.346961  -0.219119  0.058639  3.622932  0.076
N  N74  1  0.68132810  0.17958108  0.00398417  1  -0.287962  0.074631  3.347167  0.095  -0.236042  0.053883  3.635214  0.073  -0.264829  0.045322  3.655987  0.066  -0.346903  -0.218939  0.058635  3.622859  0.075
O  O75  1  0.50218133  0.02936156  0.17421338  1  -0.590037  0.100603  2.005362  0.135  -0.564277  0.064876  2.279575  0.095  -0.607034  0.051279  2.272942  0.081  -0.330717  -0.536146  0.073084  2.283643  0.101
O  O76  1  0.49781894  0.97063256  0.82578670  1  -0.589919  0.100603  2.005402  0.135  -0.564168  0.064872  2.279626  0.095  -0.606923  0.051278  2.272995  0.081  -0.330678  -0.536039  0.073083  2.28369  0.101
O  O77  1  0.27120422  0.11388507  0.11106598  1  -0.624691  -0.002588  1.914232  0.0  -0.590773  -0.001598  2.153375  0.0  -0.616869  -0.002631  2.14398  -0.001  -0.3224  -0.572561  -0.000702  2.159251  0.001
O  O78  1  0.72879652  0.88611428  0.88893787  1  -0.624657  -0.002585  1.914254  0.0  -0.590712  -0.001597  2.153421  0.0  -0.616809  -0.002632  2.144026  -0.001  -0.322365  -0.572501  -0.000702  2.159298  0.001
O  O79  1  0.67196016  0.63491847  0.18201984  1  -0.524501  0.000152  2.014667  0.0  -0.472628  0.000181  2.240155  0.0  -0.493562  0.000159  2.233893  0.0  -0.266945  -0.45795  0.000264  2.243933  0.0
O  O80  1  0.32803690  0.36508506  0.81798656  1  -0.524461  0.000156  2.014722  0.0  -0.472599  0.000181  2.240182  0.0  -0.493501  0.000158  2.233849  0.0  -0.266909  -0.457921  0.000264  2.243961  0.0
O  O81  1  0.94460112  0.77373844  0.24096453  1  -0.292688  3.6e-05  2.316124  0.0  -0.214559  4.2e-05  2.561061  0.0  -0.23593  1.9e-05  2.560689  0.0  -0.174664  -0.200163  9.1e-05  2.560838  0.0
O  O82  1  0.05539992  0.22626193  0.75903674  1  -0.29268  3.1e-05  2.316308  0.0  -0.214623  4.1e-05  2.561248  0.0  -0.236006  2e-05  2.560887  0.0  -0.174682  -0.200172  9.1e-05  2.56099  0.0
