# generated using pymatgen
data_Zr3H24C31N5ClO16
_symmetry_space_group_name_H-M   'P 1'
_cell_length_a   14.91485671
_cell_length_b   14.87219548
_cell_length_c   14.87279215
_cell_angle_alpha   59.85773342
_cell_angle_beta   59.92183590
_cell_angle_gamma   59.86387476
_symmetry_Int_Tables_number   1
_chemical_formula_structural   Zr3H24C31N5ClO16
_chemical_formula_sum   'Zr6 H48 C62 N10 Cl2 O32'
_cell_volume   2326.47619994
_cell_formula_units_Z   2
loop_
 _symmetry_equiv_pos_site_id
 _symmetry_equiv_pos_as_xyz
  1  'x, y, z'
loop_
 _atom_site_type_symbol
 _atom_site_label
 _atom_site_symmetry_multiplicity
 _atom_site_fract_x
 _atom_site_fract_y
 _atom_site_fract_z
 _atom_site_occupancy
 _atom_site_pbe_bader_charge
 _atom_site_pbe_bader_spin_density
 _atom_site_pbe_cm5_charge
 _atom_site_pbe_ddec_charge
 _atom_site_pbe_ddec_spin_density
 _atom_site_pbe_ddec_sum_bond_order
 _atom_site_pbe_magmom
Zr  Zr0  1  0.87983059  0.38034398  0.61759575  1  2.63309  0  1.630184  2.361738  0  2.787182  0
Zr  Zr1  1  0.11743976  0.61763921  0.37991156  1  2.635047  0  1.622787  2.368532  0  2.740573  0
Zr  Zr2  1  0.11756896  0.38046486  0.61945427  1  2.629898  0  1.626273  2.361863  0  2.780251  0
Zr  Zr3  1  0.88211716  0.61631203  0.38004079  1  2.629073  0  1.627136  2.366936  0  2.754316  0
Zr  Zr4  1  0.88178464  0.61414445  0.62063456  1  2.631214  0  1.628161  2.357521  0  2.784614  0
Zr  Zr5  1  0.11853331  0.37550198  0.38570652  1  2.634291  0  1.628703  2.359598  0  2.777323  0
H  H6  1  0.90650158  0.40557238  0.78198803  1  0.594048  0  0.328228  0.418799  0  0.867469  0
H  H7  1  0.90786977  0.77857172  0.40615508  1  0.589393  0  0.327373  0.416577  0  0.870046  0
H  H8  1  0.27924675  0.40378840  0.40885716  1  0.630606  0  0.331666  0.424335  0  0.857748  0
H  H9  1  0.90771547  0.40355901  0.40621951  1  0.608434  0  0.334859  0.427464  0  0.850484  0
H  H10  1  0.54178224  0.74692904  0.87812937  1  0.019123  0  0.087149  0.091534  0  1.019259  0
H  H11  1  0.62338906  0.65612527  0.96629168  1  0.030326  0  0.090055  0.096511  0  1.015724  0
H  H12  1  0.45170536  0.65672795  0.13187920  1  0.02905  0  0.086586  0.091224  0  1.015093  0
H  H13  1  0.36973410  0.74817885  0.04411905  1  0.045209  0  0.087688  0.097349  0  1.007063  0
H  H14  1  0.23886651  0.05805813  0.31151044  1  0.028398  0  0.084234  0.086887  0  1.032469  0
H  H15  1  0.13955554  0.13513525  0.24339354  1  0.074458  0  0.084352  0.094488  0  1.020651  0
H  H16  1  0.14894302  0.95830863  0.24912907  1  0.022994  0  0.089234  0.097656  0  0.98893  0
H  H17  1  0.24444208  0.88115712  0.32247222  1  0.049769  0  0.084098  0.09282  0  1.025584  0
H  H18  1  0.53368152  0.86159063  0.35347060  1  0.033945  0  0.089012  0.094905  0  1.019622  0
H  H19  1  0.61400777  0.95058612  0.25849373  1  0.037005  0  0.089055  0.097346  0  1.007394  0
H  H20  1  0.43938480  0.11548556  0.26568216  1  0.026001  0  0.084826  0.088014  0  1.016422  0
H  H21  1  0.36102977  0.02487346  0.36057519  1  0.058562  0  0.093833  0.103978  0  1.009325  0
H  H22  1  0.85272243  0.75311986  0.03540123  1  0.040245  0  0.089931  0.099569  0  0.987523  0
H  H23  1  0.76223128  0.67423939  0.11605560  1  0.049951  0  0.083787  0.092022  0  1.020566  0
H  H24  1  0.76505851  0.68041390  0.94255706  1  0.014499  0  0.083688  0.085489  0  1.026932  0
H  H25  1  0.85662153  0.75785539  0.86150081  1  0.067625  0  0.083615  0.093553  0  1.035784  0
H  H26  1  0.81614729  0.26582563  0.93312598  1  0.052732  0  0.098965  0.102135  0  1.033806  0
H  H27  1  0.66325023  0.27279018  0.10708035  1  0.050005  0  0.099901  0.099264  0  1.007111  0
H  H28  1  0.81516324  0.92845398  0.26654598  1  0.086168  0  0.100146  0.10254  0  1.040501  0
H  H29  1  0.66251831  0.10240491  0.27503222  1  0.07147  0  0.101526  0.10033  0  1.008724  0
H  H30  1  0.54849573  0.32762414  0.74482398  1  -0.001436  0  0.084276  0.0869  0  1.030525  0
H  H31  1  0.62635959  0.24779824  0.65535237  1  0.057138  0  0.085513  0.094008  0  1.013694  0
H  H32  1  0.45047268  0.25594984  0.66210927  1  0.019533  0  0.083308  0.086116  0  1.024742  0
H  H33  1  0.37258361  0.33661520  0.75109552  1  0.049958  0  0.0846  0.093886  0  1.025864  0
H  H34  1  0.35006619  0.32366106  0.16027685  1  0.489845  0  0.29732  0.300355  0  1.000077  0
H  H35  1  0.46919562  0.25746004  0.07592865  1  0.420528  0  0.298592  0.282267  0  0.970226  0
H  H36  1  0.63901030  0.34750672  0.82687226  1  0.483663  0  0.300137  0.305747  0  0.994917  0
H  H37  1  0.51860569  0.31753900  0.90954402  1  0.418654  0  0.298655  0.281324  0  0.976032  0
H  H38  1  0.83030520  0.84399646  0.66695024  1  0.478642  0  0.298145  0.300518  0  0.997458  0
H  H39  1  0.76272335  0.96356891  0.69771818  1  0.422716  0  0.297954  0.2802  0  0.971456  0
H  H40  1  0.85444185  0.13264877  0.68722460  1  0.492441  0  0.298698  0.305702  0  0.991294  0
H  H41  1  0.82891445  0.00981933  0.75418096  1  0.418782  0  0.303066  0.289709  0  0.956925  0
H  H42  1  0.34955706  0.15693347  0.66867433  1  0.496174  0  0.298407  0.305081  0  0.993478  0
H  H43  1  0.47333213  0.08050437  0.69248914  1  0.411679  0  0.298904  0.282777  0  0.971502  0
H  H44  1  0.64835137  0.83053729  0.67878140  1  0.475567  0  0.297777  0.301956  0  0.998663  0
H  H45  1  0.53098363  0.91479771  0.74656402  1  0.419192  0  0.297675  0.281867  0  0.975083  0
H  H46  1  0.16107611  0.32053077  0.85328849  1  0.477665  0  0.299079  0.303849  0  0.992982  0
H  H47  1  0.18993401  0.25437687  0.97447915  1  0.417031  0  0.301815  0.287163  0  0.96041  0
H  H48  1  0.18024826  0.33996300  0.14514389  1  0.484021  0  0.296325  0.29886  0  1.001034  0
H  H49  1  0.25122278  0.31273099  0.02418828  1  0.42674  0  0.295727  0.278356  0  0.974411  0
H  H50  1  0.34183114  0.66950149  0.33135013  1  0.484193  0  0.300704  0.305312  0  0.993807  0
H  H51  1  0.46384977  0.69602014  0.25817953  1  0.416183  0  0.300152  0.280761  0  0.97317  0
H  H52  1  0.64917975  0.67383562  0.33701016  1  0.473719  0  0.300789  0.305669  0  0.993405  0
H  H53  1  0.52864702  0.74518836  0.30722322  1  0.431548  0  0.300173  0.281582  0  0.976171  0
C  C54  1  0.69212109  0.50079390  0.80058035  1  1.485849  0  0.23129  0.65214  0  4.089294  0
C  C55  1  0.99993611  0.79867397  0.50337534  1  1.495522  0  0.233304  0.6566  0  4.079375  0
C  C56  1  0.29921923  0.49712443  0.19541198  1  1.500887  0  0.231368  0.65386  0  4.087662  0
C  C57  1  0.00237150  0.19092536  0.50367476  1  1.510717  0  0.232114  0.655159  0  4.085405  0
C  C58  1  0.00081442  0.19028848  0.79863233  1  1.592091  0  0.234083  0.658584  0  4.113299  0
C  C59  1  0.69393042  0.50225655  0.49958526  1  1.522972  0  0.232443  0.655595  0  4.081463  0
C  C60  1  0.00276702  0.79548962  0.19033490  1  1.5923  0  0.23745  0.659135  0  4.112227  0
C  C61  1  0.29802482  0.50552005  0.50153967  1  1.493439  0  0.233478  0.65752  0  4.080094  0
C  C62  1  0.00525873  0.49961654  0.80086059  1  1.496889  0  0.233563  0.656549  0  4.081819  0
C  C63  1  0.29914593  0.18999323  0.51041256  1  1.505883  0  0.230067  0.651445  0  4.09582  0
C  C64  1  0.00772516  0.49866527  0.19360743  1  1.508989  0  0.233195  0.655165  0  4.083322  0
C  C65  1  0.69487194  0.79786485  0.50496182  1  1.496023  0  0.233017  0.655469  0  4.083374  0
C  C66  1  0.59237112  0.49807536  0.89883189  1  0.019559  0  -0.029977  -0.199701  0  3.970604  0
C  C67  1  0.39615316  0.49659640  0.09425912  1  -0.02858  0  -0.031887  -0.199253  0  3.981278  0
C  C68  1  0.54167438  0.57514396  0.95296342  1  -0.015798  0  -0.023345  0.041753  0  3.956196  0
C  C69  1  0.44644154  0.41541849  0.04389255  1  0.422855  0  0.097591  0.187194  0  3.995918  0
C  C70  1  0.44729409  0.57580310  0.04426491  1  -0.002202  0  -0.026663  0.039303  0  3.969459  0
C  C71  1  0.54065514  0.41882006  0.94469173  1  0.443845  0  0.102172  0.194323  0  4.002528  0
C  C72  1  0.55030551  0.67318197  0.95149790  1  0.001964  0  -0.156151  -0.18742  0  3.890256  0
C  C73  1  0.44202981  0.67414402  0.05553351  1  -0.00207  0  -0.158603  -0.191699  0  3.896694  0
C  C74  1  0.99848167  0.09308625  0.50557866  1  -0.033071  0  -0.0307  -0.202078  0  3.982079  0
C  C75  1  0.99794550  0.89688007  0.50686620  1  0.048507  0  -0.03055  -0.199868  0  3.98166  0
C  C76  1  0.07221578  0.04626589  0.42150414  1  -0.004406  0  -0.024522  0.041093  0  3.951592  0
C  C77  1  0.91849403  0.94500148  0.59026036  1  0.35455  0  0.101389  0.191465  0  3.997164  0
C  C78  1  0.07375559  0.95153412  0.42369896  1  0.024932  0  -0.022752  0.045001  0  3.957131  0
C  C79  1  0.92188499  0.03890107  0.59249945  1  0.437039  0  0.100555  0.192556  0  4.001251  0
C  C80  1  0.16379386  0.06127643  0.31123429  1  -0.039925  0  -0.159643  -0.190523  0  3.893797  0
C  C81  1  0.16793575  0.95085125  0.31561987  1  -0.00804  0  -0.159034  -0.19072  0  3.892097  0
C  C82  1  0.59659783  0.89774426  0.50866318  1  -0.012809  0  -0.029844  -0.198205  0  3.974838  0
C  C83  1  0.39820065  0.09102758  0.51341805  1  -0.004328  0  -0.032624  -0.201513  0  3.986625  0
C  C84  1  0.54281489  0.94844244  0.43144473  1  -0.008204  0  -0.024759  0.037869  0  3.971062  0
C  C85  1  0.45174670  0.04418182  0.59128370  1  0.480321  0  0.099475  0.192953  0  4.007217  0
C  C86  1  0.44776608  0.03901719  0.43488958  1  -0.020247  0  -0.02497  0.039856  0  3.968755  0
C  C87  1  0.54812728  0.94668886  0.59072730  1  0.412209  0  0.099582  0.194257  0  3.988187  0
C  C88  1  0.54386579  0.93807895  0.33462168  1  -0.011823  0  -0.15862  -0.194976  0  3.894909  0
C  C89  1  0.43465192  0.04121694  0.33922178  1  -0.021747  0  -0.156431  -0.190064  0  3.897679  0
C  C90  1  0.01218208  0.49741521  0.09303999  1  -0.034582  0  -0.029994  -0.197816  0  3.982384  0
C  C91  1  0.01171326  0.49903588  0.89665338  1  -0.032859  0  -0.031061  -0.203443  0  3.978822  0
C  C92  1  0.93457726  0.57918734  0.04003828  1  0.054447  0  -0.023306  0.043252  0  3.957999  0
C  C93  1  0.09097987  0.41410157  0.94864234  1  0.456538  0  0.102156  0.194854  0  3.997246  0
C  C94  1  0.93562957  0.58119413  0.94564686  1  0.041101  0  -0.023345  0.045216  0  3.947505  0
C  C95  1  0.09355632  0.41577962  0.04322839  1  0.39581  0  0.099322  0.189067  0  3.994966  0
C  C96  1  0.83648199  0.68416583  0.04423854  1  -0.030498  0  -0.158363  -0.19081  0  3.892316  0
C  C97  1  0.83857362  0.68736632  0.93533365  1  -0.022069  0  -0.160779  -0.190067  0  3.892446  0
C  C98  1  0.99906729  0.08744135  0.89863140  1  0.014017  0  -0.014654  -0.124998  0  3.923561  0
C  C99  1  0.90899423  0.09336737  0.99889676  1  -0.002505  0  -0.003191  0.063836  0  3.963385  0
C  C100  1  0.08342650  0.98833349  0.89307200  1  0.091371  0  0.009872  0.060161  0  4.053224  0
C  C101  1  0.81861633  0.19249731  0.00647117  1  0.007944  0  -0.093582  -0.126532  0  3.970575  0
C  C102  1  0.73209369  0.19595380  0.10386836  1  -0.021309  0  -0.093868  -0.081902  0  4.030944  0
C  C103  1  0.99995572  0.89628314  0.08825623  1  0.059384  0  -0.013087  -0.122665  0  3.916439  0
C  C104  1  0.08404478  0.89196369  0.98879914  1  0.089231  0  0.011527  0.06074  0  4.050569  0
C  C105  1  0.90909927  0.99607261  0.09518948  1  0.010533  0  -0.001849  0.066495  0  3.958893  0
C  C106  1  0.81828501  0.00259058  0.19415892  1  -0.066262  0  -0.092741  -0.131251  0  3.967753  0
C  C107  1  0.73183450  0.10015166  0.19844019  1  -0.049871  0  -0.09219  -0.079546  0  4.02509  0
C  C108  1  0.59610707  0.50472847  0.49519979  1  0.014953  0  -0.030468  -0.200493  0  3.975156  0
C  C109  1  0.39629118  0.50956178  0.49875424  1  0.000571  0  -0.029958  -0.199402  0  3.976101  0
C  C110  1  0.54483695  0.42492765  0.57402774  1  0.022193  0  -0.025002  0.040613  0  3.958549  0
C  C111  1  0.44726533  0.58991984  0.41559484  1  0.416033  0  0.101263  0.193763  0  3.995794  0
C  C112  1  0.44922962  0.42842387  0.57671463  1  -0.006931  0  -0.02445  0.04305  0  3.959557  0
C  C113  1  0.54503869  0.58848696  0.41481854  1  0.413223  0  0.102331  0.197004  0  3.996006  0
C  C114  1  0.55417274  0.31970630  0.67245318  1  -0.004742  0  -0.159755  -0.188941  0  3.896269  0
C  C115  1  0.44366134  0.32497963  0.67671749  1  -0.014491  0  -0.161492  -0.189287  0  3.894096  0
N  N116  1  0.40807907  0.32990145  0.08368066  1  -1.221418  0  -0.602971  -0.611721  0  3.337902  0
N  N117  1  0.57848133  0.33782267  0.90176335  1  -1.229353  0  -0.600651  -0.608464  0  3.360302  0
N  N118  1  0.83574923  0.90423666  0.67624705  1  -1.191104  0  -0.59631  -0.600199  0  3.367565  0
N  N119  1  0.84406439  0.07279146  0.68226891  1  -1.22552  0  -0.597189  -0.604457  0  3.337785  0
N  N120  1  0.41388394  0.08463809  0.67421288  1  -1.230056  0  -0.601497  -0.61169  0  3.362635  0
N  N121  1  0.59008088  0.90700368  0.67339651  1  -1.211011  0  -0.604156  -0.612266  0  3.334692  0
N  N122  1  0.17148774  0.32632448  0.91259494  1  -1.223511  0  -0.595459  -0.599194  0  3.344105  0
N  N123  1  0.17705014  0.33034391  0.08374938  1  -1.236983  0  -0.601129  -0.60737  0  3.357337  0
N  N124  1  0.40591056  0.67592738  0.33294493  1  -1.206145  0  -0.597584  -0.606238  0  3.354638  0
N  N125  1  0.58646634  0.67101155  0.32941387  1  -1.23596  0  -0.598162  -0.607345  0  3.357389  0
Cl  Cl126  1  0.18856018  0.76909054  0.97909155  1  -0.176462  0  0.017302  -0.035162  0  1.585873  0
Cl  Cl127  1  0.18666811  0.98004732  0.76936833  1  -0.173251  0  0.009619  -0.037642  0  1.58277  0
O  O128  1  0.73498276  0.42552201  0.75709915  1  -1.189532  0  -0.364133  -0.632853  0  2.334378  0
O  O129  1  0.07468946  0.76184190  0.42449301  1  -1.180469  0  -0.350125  -0.607688  0  2.245941  0
O  O130  1  0.26010475  0.57451348  0.23351211  1  -1.17703  0  -0.349754  -0.612325  0  2.265733  0
O  O131  1  0.92624448  0.23460868  0.57856110  1  -1.191643  0  -0.364298  -0.630728  0  2.334135  0
O  O132  1  0.07452927  0.23011992  0.76496274  1  -1.172106  0  -0.344473  -0.612463  0  2.257613  0
O  O133  1  0.73703604  0.57805271  0.42461193  1  -1.199864  0  -0.363357  -0.631318  0  2.321851  0
O  O134  1  0.92655575  0.75608810  0.23108789  1  -1.166723  0  -0.35058  -0.614372  0  2.286158  0
O  O135  1  0.26083435  0.42740932  0.57777923  1  -1.179368  0  -0.34906  -0.609905  0  2.242208  0
O  O136  1  0.92695366  0.57480922  0.76351504  1  -1.177178  0  -0.34995  -0.609972  0  2.241608  0
O  O137  1  0.26070661  0.22795127  0.43362773  1  -1.178452  0  -0.349827  -0.611388  0  2.257063  0
O  O138  1  0.08191198  0.42205274  0.23808131  1  -1.203577  0  -0.363881  -0.628791  0  2.328188  0
O  O139  1  0.73730700  0.75322910  0.58119542  1  -1.194546  0  -0.365932  -0.63009  0  2.341332  0
O  O140  1  0.25712767  0.23457487  0.58455112  1  -1.190619  0  -0.366058  -0.634222  0  2.341035  0
O  O141  1  0.92935682  0.57445930  0.23325437  1  -1.172318  0  -0.351294  -0.607034  0  2.258485  0
O  O142  1  0.73371112  0.76138725  0.42640729  1  -1.181563  0  -0.346102  -0.609425  0  2.242748  0
O  O143  1  0.07890019  0.42200228  0.75947130  1  -1.19567  0  -0.370127  -0.636371  0  2.328535  0
O  O144  1  0.92479615  0.23045932  0.75891908  1  -1.182031  0  -0.35212  -0.616414  0  2.277777  0
O  O145  1  0.25556679  0.58015785  0.42505249  1  -1.194974  0  -0.364114  -0.631631  0  2.321953  0
O  O146  1  0.07755199  0.76036906  0.22949879  1  -1.168155  0  -0.343819  -0.614838  0  2.263983  0
O  O147  1  0.73211026  0.42527586  0.57704833  1  -1.179727  0  -0.352007  -0.613665  0  2.24089  0
O  O148  1  0.07974396  0.22936031  0.42755671  1  -1.189616  0  -0.354971  -0.613421  0  2.246291  0
O  O149  1  0.73243535  0.57566035  0.76420507  1  -1.172788  0  -0.349465  -0.610431  0  2.245665  0
O  O150  1  0.92505132  0.75497196  0.57961934  1  -1.188046  0  -0.365883  -0.631952  0  2.327004  0
O  O151  1  0.26011527  0.41823131  0.24095948  1  -1.188705  0  -0.361845  -0.627228  0  2.329237  0
O  O152  1  0.93325561  0.43043994  0.43348527  1  -1.232132  0  -0.698515  -1.071344  0  2.377826  0
O  O153  1  0.19956986  0.43059712  0.43499176  1  -1.257218  0  -0.697205  -1.071591  0  2.378378  0
O  O154  1  0.93317342  0.69865915  0.43128458  1  -1.220074  0  -0.694521  -1.068136  0  2.369565  0
O  O155  1  0.93202363  0.43010421  0.70214543  1  -1.225997  0  -0.698122  -1.071837  0  2.376523  0
O  O156  1  0.04892152  0.54783115  0.54912773  1  -1.196844  0  -0.794171  -1.144884  0  2.14812  0
O  O157  1  0.85243726  0.54737749  0.54887050  1  -1.199944  0  -0.794537  -1.146706  0  2.144716  0
O  O158  1  0.04949067  0.54576770  0.35288931  1  -1.194431  0  -0.789357  -1.14219  0  2.129165  0
O  O159  1  0.04819966  0.34892690  0.55214059  1  -1.200012  0  -0.795462  -1.143693  0  2.145486  0
