# generated using pymatgen
data_LiH6C10NO4
_symmetry_space_group_name_H-M   'P 1'
_cell_length_a   4.90482725
_cell_length_b   7.28730507
_cell_length_c   13.46710928
_cell_angle_alpha   98.29447570
_cell_angle_beta   89.99999912
_cell_angle_gamma   90.00022884
_symmetry_Int_Tables_number   1
_chemical_formula_structural   LiH6C10NO4
_chemical_formula_sum   'Li2 H12 C20 N2 O8'
_cell_volume   476.31940479
_cell_formula_units_Z   2
loop_
 _symmetry_equiv_pos_site_id
 _symmetry_equiv_pos_as_xyz
  1  'x, y, z'
loop_
 _atom_site_type_symbol
 _atom_site_label
 _atom_site_symmetry_multiplicity
 _atom_site_fract_x
 _atom_site_fract_y
 _atom_site_fract_z
 _atom_site_occupancy
 _atom_site_hle17_bader_spin_density
 _atom_site_hle17_ddec_charge
 _atom_site_hle17_ddec_spin_density
 _atom_site_hle17_ddec_sum_bond_order
 _atom_site_hle17_magmom
 _atom_site_hse06_10hf_bader_spin_density
 _atom_site_hse06_10hf_ddec_charge
 _atom_site_hse06_10hf_ddec_spin_density
 _atom_site_hse06_10hf_ddec_sum_bond_order
 _atom_site_hse06_10hf_magmom
 _atom_site_hse06_bader_spin_density
 _atom_site_hse06_ddec_charge
 _atom_site_hse06_ddec_spin_density
 _atom_site_hse06_ddec_sum_bond_order
 _atom_site_hse06_magmom
 _atom_site_pbe_bader_spin_density
 _atom_site_pbe_cm5_charge
 _atom_site_pbe_ddec_charge
 _atom_site_pbe_ddec_spin_density
 _atom_site_pbe_ddec_sum_bond_order
 _atom_site_pbe_magmom
Li  Li0  1  0.63791755  0.37507285  0.49867815  1  0  0.853244  0  0.417044  0  0  0.815914  0  0.521108  0  0  0.825463  0  0.503861  0  0  0.532697  0.808896  0  0.533689  0
Li  Li1  1  0.13790884  0.62492590  0.50132188  1  0  0.853245  0  0.417005  0  0  0.815922  0  0.521054  0  0  0.825472  0  0.503809  0  0  0.532663  0.808903  0  0.533631  0
H  H2  1  0.65745782  0.48553543  0.29915889  1  0  0.115823  0  0.950504  0  0  0.121608  0  1.017015  0  0  0.125812  0  1.014054  0  0  0.124694  0.118492  0  1.01932  0
H  H3  1  0.15745660  0.51446476  0.70084125  1  0  0.115828  0  0.950497  0  0  0.121615  0  1.017004  0  0  0.12582  0  1.014041  0  0  0.124697  0.1185  0  1.01931  0
H  H4  1  0.32449989  0.40719229  0.15687059  1  0  0.103151  0  0.953648  0  0  0.110425  0  1.017684  0  0  0.114124  0  1.015532  0  0  0.104645  0.107728  0  1.019341  0
H  H5  1  0.82450376  0.59280559  0.84312938  1  0  0.103136  0  0.953625  0  0  0.11039  0  1.017678  0  0  0.114087  0  1.015531  0  0  0.104626  0.107696  0  1.019339  0
H  H6  1  0.29083976  0.60478363  0.02278099  1  0  0.091914  0  0.959695  0  0  0.102095  0  1.019922  0  0  0.104246  0  1.020478  0  0  0.102225  0.10054  0  1.019619  0
H  H7  1  0.79084450  0.39521415  0.97721971  1  0  0.091921  0  0.959669  0  0  0.102097  0  1.019903  0  0  0.104248  0  1.020458  0  0  0.102217  0.100539  0  1.019598  0
H  H8  1  0.58314243  0.88458243  0.02452977  1  0  0.115223  0  0.959757  0  0  0.12203  0  1.02325  0  0  0.126307  0  1.019897  0  0  0.107972  0.118946  0  1.02571  0
H  H9  1  0.08314698  0.11541756  0.97547037  1  0  0.115239  0  0.959742  0  0  0.122053  0  1.023232  0  0  0.126328  0  1.019882  0  0  0.107978  0.118965  0  1.02569  0
H  H10  1  0.42266572  0.16179821  0.27773685  1  0  0.115429  0  0.915831  0  0  0.127993  0  0.978703  0  0  0.129746  0  0.977451  0  0  0.125102  0.126704  0  0.979715  0
H  H11  1  0.92266290  0.83819994  0.72226165  1  0  0.11547  0  0.915834  0  0  0.128013  0  0.978712  0  0  0.129766  0  0.97746  0  0  0.125107  0.126724  0  0.979727  0
H  H12  1  0.42079982  0.03065451  0.37858918  1  0  0.124768  0  0.906346  0  0  0.136532  0  0.966282  0  0  0.139801  0  0.963192  0  0  0.13545  0.134194  0  0.968551  0
H  H13  1  0.92079166  0.96934224  0.62140847  1  0  0.124826  0  0.906321  0  0  0.136588  0  0.966245  0  0  0.139858  0  0.963152  0  0  0.135463  0.134248  0  0.968512  0
C  C14  1  0.00952160  0.81297164  0.31246000  1  0  0.543371  0  3.78679  0  0  0.496844  0  4.07249  0  0  0.526178  0  4.071141  0  0  0.274307  0.476924  0  4.073069  0
C  C15  1  0.50951899  0.18702676  0.68754298  1  0  0.543292  0  3.786814  0  0  0.496797  0  4.072476  0  0  0.526131  0  4.07113  0  0  0.274289  0.476901  0  4.073023  0
C  C16  1  0.80070518  0.72869568  0.23981987  1  0  -0.08316  0  3.794901  0  0  -0.07219  0  4.033031  0  0  -0.078092  0  4.055683  0  0  -0.00583  -0.068319  0  4.017766  0
C  C17  1  0.30070659  0.27130491  0.76017956  1  0  -0.083078  0  3.795044  0  0  -0.072137  0  4.033176  0  0  -0.078038  0  4.055829  0  0  -0.005814  -0.068275  0  4.017912  0
C  C18  1  0.64061752  0.57155878  0.23960547  1  0  -0.030852  0  3.661525  0  0  -0.057271  0  3.913297  0  0  -0.056235  0  3.930408  0  0  -0.056317  -0.057851  0  3.901769  0
C  C19  1  0.14061783  0.42843998  0.76039457  1  0  -0.030815  0  3.661476  0  0  -0.057232  0  3.913252  0  0  -0.056198  0  3.930363  0  0  -0.056296  -0.057812  0  3.901732  0
C  C20  1  0.45569346  0.52894213  0.15982636  1  0  -0.05583  0  3.688023  0  0  -0.072297  0  3.945204  0  0  -0.074386  0  3.964546  0  0  -0.074994  -0.070815  0  3.932006  0
C  C21  1  0.95569457  0.47105749  0.84017374  1  0  -0.055887  0  3.687989  0  0  -0.072337  0  3.945183  0  0  -0.074425  0  3.964525  0  0  -0.075013  -0.07086  0  3.931996  0
C  C22  1  0.43586231  0.64094652  0.08384357  1  0  -0.059616  0  3.717369  0  0  -0.074481  0  3.97381  0  0  -0.076179  0  3.994724  0  0  -0.079682  -0.073257  0  3.959453  0
C  C23  1  0.93586479  0.35905305  0.91615652  1  0  -0.059566  0  3.717263  0  0  -0.074413  0  3.973692  0  0  -0.07611  0  3.994603  0  0  -0.079643  -0.073183  0  3.959326  0
C  C24  1  0.59905711  0.79947027  0.08447354  1  0  -0.049377  0  3.68917  0  0  -0.075308  0  3.940452  0  0  -0.075616  0  3.958405  0  0  -0.07264  -0.074946  0  3.928192  0
C  C25  1  0.09906217  0.20052977  0.91552659  1  0  -0.049364  0  3.689045  0  0  -0.075326  0  3.940322  0  0  -0.075634  0  3.958275  0  0  -0.072634  -0.074956  0  3.928052  0
C  C26  1  0.78026646  0.84058072  0.16353447  1  0  -0.085836  0  3.813669  0  0  -0.073213  0  4.054019  0  0  -0.079228  0  4.077845  0  0  -0.012643  -0.06923  0  4.03787  0
C  C27  1  0.28026924  0.15941981  0.83646496  1  0  -0.085961  0  3.813732  0  0  -0.073256  0  4.054074  0  0  -0.079273  0  4.077901  0  0  -0.012622  -0.069281  0  4.037932  0
C  C28  1  0.97550112  0.99705171  0.18649323  1  0  0.513998  0  3.800607  0  0  0.46252  0  4.097155  0  0  0.491496  0  4.096765  0  0  0.2538  0.442895  0  4.096938  0
C  C29  1  0.47550094  0.00295075  0.81350783  1  0  0.514155  0  3.800408  0  0  0.462529  0  4.097172  0  0  0.491506  0  4.096781  0  0  0.25377  0.442913  0  4.09695  0
C  C30  1  0.29008390  0.10158919  0.33004217  1  0  -0.138872  0  3.642941  0  0  -0.203285  0  3.900925  0  0  -0.201488  0  3.905885  0  0  -0.04569  -0.204462  0  3.897441  0
C  C31  1  0.79007533  0.89841276  0.66995811  1  0  -0.13899  0  3.642989  0  0  -0.203378  0  3.900889  0  0  -0.201581  0  3.905854  0  0  -0.045696  -0.20455  0  3.897398  0
C  C32  1  0.13332247  0.25782789  0.39522426  1  0  0.73394  0  3.861272  0  0  0.694866  0  4.156902  0  0  0.726309  0  4.147721  0  0  0.236351  0.673583  0  4.162385  0
C  C33  1  0.63331297  0.74216946  0.60477567  1  0  0.734038  0  3.86154  0  0  0.695024  0  4.15707  0  0  0.726464  0  4.147895  0  0  0.23629  0.673736  0  4.16256  0
N  N34  1  0.11112400  0.96743764  0.27453817  1  0  -0.274111  0  3.459157  0  0  -0.196666  0  3.69743  0  0  -0.222481  0  3.718047  0  0  -0.25411  -0.178998  0  3.682765  0
N  N35  1  0.61112456  0.03256520  0.72546292  1  0  -0.27415  0  3.459217  0  0  -0.196672  0  3.697498  0  0  -0.222488  0  3.718115  0  0  -0.25414  -0.179017  0  3.682825  0
O  O36  1  0.08688809  0.76516941  0.39162699  1  0  -0.543157  0  1.971892  0  0  -0.503393  0  2.194432  0  0  -0.521411  0  2.186319  0  0  -0.303922  -0.491283  0  2.199968  0
O  O37  1  0.58688985  0.23483336  0.60837039  1  0  -0.543157  0  1.971715  0  0  -0.503405  0  2.194241  0  0  -0.521426  0  2.186133  0  0  -0.30392  -0.491301  0  2.199763  0
O  O38  1  0.01845567  0.12893983  0.14132330  1  0  -0.481412  0  1.918602  0  0  -0.435379  0  2.126568  0  0  -0.454904  0  2.121265  0  0  -0.257271  -0.422062  0  2.129958  0
O  O39  1  0.51845711  0.87106276  0.85867704  1  0  -0.481479  0  1.918525  0  0  -0.435397  0  2.126574  0  0  -0.454919  0  2.121262  0  0  -0.257296  -0.422083  0  2.129961  0
O  O40  1  0.28079390  0.38608871  0.44213211  1  0  -0.805786  0  1.976286  0  0  -0.763819  0  2.219132  0  0  -0.784565  0  2.203177  0  0  -0.454807  -0.749075  0  2.229615  0
O  O41  1  0.78077752  0.61390905  0.55787156  1  0  -0.805876  0  1.976505  0  0  -0.763904  0  2.219285  0  0  -0.784643  0  2.203318  0  0  -0.454783  -0.749163  0  2.229775  0
O  O42  1  0.87761574  0.24931383  0.39793523  1  0  -0.702847  0  1.93466  0  0  -0.663525  0  2.168743  0  0  -0.684899  0  2.157187  0  0  -0.379339  -0.648605  0  2.176275  0
O  O43  1  0.37759553  0.75069113  0.60206529  1  0  -0.702833  0  1.93483  0  0  -0.66357  0  2.1689  0  0  -0.684943  0  2.157342  0  0  -0.379242  -0.648641  0  2.176421  0
