# generated using pymatgen
data_CdH2C2BrN3
_symmetry_space_group_name_H-M   'P 1'
_cell_length_a   8.46522339
_cell_length_b   12.64424013
_cell_length_c   15.69540040
_cell_angle_alpha   89.99999182
_cell_angle_beta   102.67252095
_cell_angle_gamma   89.99994877
_symmetry_Int_Tables_number   1
_chemical_formula_structural   CdH2C2BrN3
_chemical_formula_sum   'Cd12 H24 C24 Br12 N36'
_cell_volume   1639.05337964
_cell_formula_units_Z   12
loop_
 _symmetry_equiv_pos_site_id
 _symmetry_equiv_pos_as_xyz
  1  'x, y, z'
loop_
 _atom_site_type_symbol
 _atom_site_label
 _atom_site_symmetry_multiplicity
 _atom_site_fract_x
 _atom_site_fract_y
 _atom_site_fract_z
 _atom_site_occupancy
 _atom_site_hle17_bader_spin_density
 _atom_site_hle17_ddec_charge
 _atom_site_hle17_ddec_spin_density
 _atom_site_hle17_ddec_sum_bond_order
 _atom_site_hle17_magmom
 _atom_site_hse06_10hf_bader_spin_density
 _atom_site_hse06_10hf_ddec_charge
 _atom_site_hse06_10hf_ddec_spin_density
 _atom_site_hse06_10hf_ddec_sum_bond_order
 _atom_site_hse06_10hf_magmom
 _atom_site_hse06_bader_spin_density
 _atom_site_hse06_ddec_charge
 _atom_site_hse06_ddec_spin_density
 _atom_site_hse06_ddec_sum_bond_order
 _atom_site_hse06_magmom
 _atom_site_pbe_bader_spin_density
 _atom_site_pbe_cm5_charge
 _atom_site_pbe_ddec_charge
 _atom_site_pbe_ddec_spin_density
 _atom_site_pbe_ddec_sum_bond_order
 _atom_site_pbe_magmom
Cd  Cd0  1  0.88473003  0.55208110  0.60005090  1  0  0.925422  0  1.93248  0  0  0.716941  0  2.402216  0  0  0.765887  0  2.362462  0  0  0.722679  0.682669  0  2.429167  0
Cd  Cd1  1  0.61526942  0.05208120  0.39994918  1  0  0.925416  0  1.932466  0  0  0.716932  0  2.402203  0  0  0.765878  0  2.362449  0  0  0.722689  0.68266  0  2.429153  0
Cd  Cd2  1  0.11526934  0.44791850  0.39994914  1  0  0.925417  0  1.932478  0  0  0.716933  0  2.402216  0  0  0.765879  0  2.362463  0  0  0.722676  0.682662  0  2.429167  0
Cd  Cd3  1  0.38472874  0.94791840  0.60005072  1  0  0.925443  0  1.932469  0  0  0.716971  0  2.402203  0  0  0.765916  0  2.362449  0  0  0.722684  0.682699  0  2.429152  0
Cd  Cd4  1  0.62928446  0.46698312  0.76938144  1  0  0.919195  0  1.952634  0  0  0.73459  0  2.4105  0  0  0.784155  0  2.370587  0  0  0.638823  0.699853  0  2.437398  0
Cd  Cd5  1  0.87071681  0.96698309  0.23061881  1  0  0.919228  0  1.952603  0  0  0.734634  0  2.410464  0  0  0.784197  0  2.370553  0  0  0.63885  0.699895  0  2.437364  0
Cd  Cd6  1  0.37071612  0.53301569  0.23061811  1  0  0.919177  0  1.952641  0  0  0.734579  0  2.410501  0  0  0.784143  0  2.37059  0  0  0.638826  0.699839  0  2.437401  0
Cd  Cd7  1  0.12928378  0.03301572  0.76938137  1  0  0.919197  0  1.952589  0  0  0.7346  0  2.410447  0  0  0.784164  0  2.370536  0  0  0.638829  0.699861  0  2.437345  0
Cd  Cd8  1  0.77040974  0.50947918  0.01572244  1  0  0.925139  0  1.910295  0  0  0.753113  0  2.356283  0  0  0.802888  0  2.316089  0  0  0.611333  0.718124  0  2.383449  0
Cd  Cd9  1  0.72958735  0.00947832  0.98427736  1  0  0.925094  0  1.910312  0  0  0.753053  0  2.356338  0  0  0.80284  0  2.316121  0  0  0.611306  0.718063  0  2.383502  0
Cd  Cd10  1  0.22958964  0.49052200  0.98427632  1  0  0.925147  0  1.910264  0  0  0.753108  0  2.356272  0  0  0.802892  0  2.316063  0  0  0.611345  0.718119  0  2.38344  0
Cd  Cd11  1  0.27041081  0.99052128  0.01572317  1  0  0.925129  0  1.910301  0  0  0.753128  0  2.356266  0  0  0.802902  0  2.316073  0  0  0.611338  0.718139  0  2.383433  0
H  H12  1  0.54488814  0.61979347  0.44216564  1  0  0.080349  0  0.961999  0  0  0.086449  0  1.035037  0  0  0.088768  0  1.031802  0  0  0.119359  0.084695  0  1.037393  0
H  H13  1  0.95510999  0.11979334  0.55783491  1  0  0.08028  0  0.961999  0  0  0.086402  0  1.035024  0  0  0.08872  0  1.03179  0  0  0.119341  0.084648  0  1.03738  0
H  H14  1  0.45511002  0.38020534  0.55783425  1  0  0.0803  0  0.962032  0  0  0.086428  0  1.035043  0  0  0.088746  0  1.031809  0  0  0.119352  0.084674  0  1.0374  0
H  H15  1  0.04489059  0.88020468  0.44216528  1  0  0.080291  0  0.962044  0  0  0.086417  0  1.03506  0  0  0.088735  0  1.031826  0  0  0.119349  0.084663  0  1.037416  0
H  H16  1  0.78374938  0.50429814  0.25399603  1  0  0.078733  0  0.959956  0  0  0.087239  0  1.032087  0  0  0.089109  0  1.029186  0  0  0.115414  0.085751  0  1.034267  0
H  H17  1  0.71624893  0.00429891  0.74600328  1  0  0.078721  0  0.959964  0  0  0.08721  0  1.032121  0  0  0.08908  0  1.029221  0  0  0.115416  0.085743  0  1.034282  0
H  H18  1  0.21624878  0.49569988  0.74600450  1  0  0.078725  0  0.95997  0  0  0.08722  0  1.032115  0  0  0.08909  0  1.029214  0  0  0.115401  0.085731  0  1.034298  0
H  H19  1  0.28375044  0.99570069  0.25399740  1  0  0.078694  0  0.960014  0  0  0.087189  0  1.032156  0  0  0.089062  0  1.029252  0  0  0.115411  0.085692  0  1.034344  0
H  H20  1  0.66272244  0.78139348  0.54346644  1  0  0.08864  0  0.926619  0  0  0.098911  0  0.990705  0  0  0.101083  0  0.98786  0  0  0.128769  0.09729  0  0.992757  0
H  H21  1  0.83727547  0.28139424  0.45653279  1  0  0.088683  0  0.926611  0  0  0.098953  0  0.990702  0  0  0.101128  0  0.987855  0  0  0.128765  0.097328  0  0.992754  0
H  H22  1  0.33727693  0.21860690  0.45653360  1  0  0.088696  0  0.926583  0  0  0.098943  0  0.990693  0  0  0.101116  0  0.987848  0  0  0.128772  0.097322  0  0.992745  0
H  H23  1  0.16272390  0.71860615  0.54346725  1  0  0.088679  0  0.926601  0  0  0.098949  0  0.990691  0  0  0.101123  0  0.987844  0  0  0.128767  0.097324  0  0.992742  0
H  H24  1  0.45392323  0.73148859  0.75973102  1  0  0.090798  0  0.949355  0  0  0.098927  0  1.018466  0  0  0.101128  0  1.015428  0  0  0.115715  0.097207  0  1.020794  0
H  H25  1  0.04607638  0.23148877  0.24026968  1  0  0.090781  0  0.949374  0  0  0.098924  0  1.018471  0  0  0.101123  0  1.015437  0  0  0.115703  0.097218  0  1.020785  0
H  H26  1  0.54607493  0.26851022  0.24026824  1  0  0.090838  0  0.949344  0  0  0.098964  0  1.018455  0  0  0.101165  0  1.015415  0  0  0.115719  0.09723  0  1.020796  0
H  H27  1  0.95392178  0.76851083  0.75973022  1  0  0.090807  0  0.949372  0  0  0.098938  0  1.018475  0  0  0.101139  0  1.015438  0  0  0.115712  0.097222  0  1.020799  0
H  H28  1  0.60502294  0.18444499  0.79955587  1  0  0.092305  0  0.943639  0  0  0.100112  0  1.014842  0  0  0.102228  0  1.011491  0  0  0.12484  0.098463  0  1.017352  0
H  H29  1  0.89497390  0.68444416  0.20044261  1  0  0.092305  0  0.943635  0  0  0.100101  0  1.014846  0  0  0.102218  0  1.01149  0  0  0.124857  0.098453  0  1.017355  0
H  H30  1  0.39498008  0.81555381  0.20044269  1  0  0.092296  0  0.943625  0  0  0.100096  0  1.014832  0  0  0.102213  0  1.011474  0  0  0.124843  0.098447  0  1.017342  0
H  H31  1  0.10502790  0.31555385  0.79955581  1  0  0.092308  0  0.94368  0  0  0.100119  0  1.014873  0  0  0.10224  0  1.01151  0  0  0.124836  0.09847  0  1.017382  0
H  H32  1  0.81334533  0.24745076  0.06376844  1  0  0.091282  0  0.947751  0  0  0.099892  0  1.016538  0  0  0.101777  0  1.01344  0  0  0.119068  0.098395  0  1.018905  0
H  H33  1  0.68665383  0.74745150  0.93623159  1  0  0.091359  0  0.947659  0  0  0.099964  0  1.016459  0  0  0.101849  0  1.013358  0  0  0.119092  0.098467  0  1.018827  0
H  H34  1  0.18665162  0.75254963  0.93623131  1  0  0.091282  0  0.947692  0  0  0.099896  0  1.016481  0  0  0.10178  0  1.013384  0  0  0.119082  0.098399  0  1.018849  0
H  H35  1  0.31334674  0.25255047  0.06376987  1  0  0.091332  0  0.947661  0  0  0.099947  0  1.016443  0  0  0.101832  0  1.013345  0  0  0.11909  0.09845  0  1.01881  0
C  C36  1  0.63719978  0.58829530  0.41097909  1  0  0.210929  0  3.73267  0  0  0.151856  0  4.006667  0  0  0.166072  0  4.020387  0  0  0.128641  0.142583  0  3.997147  0
C  C37  1  0.86279840  0.08829523  0.58902210  1  0  0.211039  0  3.732777  0  0  0.151942  0  4.006779  0  0  0.166159  0  4.0205  0  0  0.12869  0.142669  0  3.997257  0
C  C38  1  0.36279838  0.41170350  0.58902144  1  0  0.210997  0  3.732723  0  0  0.151897  0  4.006726  0  0  0.166114  0  4.020447  0  0  0.128662  0.142625  0  3.997207  0
C  C39  1  0.13720218  0.91170358  0.41097935  1  0  0.210987  0  3.732746  0  0  0.151895  0  4.006744  0  0  0.166112  0  4.020463  0  0  0.128656  0.142622  0  3.997223  0
C  C40  1  0.75819939  0.53029733  0.31554200  1  0  0.203986  0  3.741274  0  0  0.147985  0  4.009223  0  0  0.161277  0  4.024206  0  0  0.127785  0.139344  0  3.998892  0
C  C41  1  0.74179767  0.03029810  0.68445716  1  0  0.204024  0  3.741286  0  0  0.148037  0  4.009242  0  0  0.16133  0  4.024223  0  0  0.127776  0.139377  0  3.998902  0
C  C42  1  0.24179877  0.46970306  0.68445789  1  0  0.203929  0  3.741346  0  0  0.147939  0  4.009288  0  0  0.161231  0  4.024271  0  0  0.127765  0.139298  0  3.998959  0
C  C43  1  0.25820170  0.96970150  0.31554352  1  0  0.203988  0  3.741336  0  0  0.147991  0  4.009298  0  0  0.16128  0  4.024278  0  0  0.127753  0.139359  0  3.998971  0
C  C44  1  0.62665116  0.74584529  0.59938624  1  0  0.198882  0  3.734697  0  0  0.144227  0  4.002822  0  0  0.157606  0  4.017371  0  0  0.129819  0.135547  0  3.992582  0
C  C45  1  0.87334801  0.24584603  0.40061378  1  0  0.198725  0  3.73477  0  0  0.144065  0  4.002893  0  0  0.157442  0  4.017445  0  0  0.129751  0.135392  0  3.992646  0
C  C46  1  0.37334943  0.25415431  0.40061394  1  0  0.198721  0  3.734739  0  0  0.144079  0  4.002864  0  0  0.157457  0  4.017415  0  0  0.129755  0.135401  0  3.992625  0
C  C47  1  0.12665136  0.75415436  0.59938626  1  0  0.198793  0  3.73476  0  0  0.144134  0  4.002885  0  0  0.157512  0  4.017435  0  0  0.129778  0.135461  0  3.992637  0
C  C48  1  0.52131749  0.72073269  0.70897015  1  0  0.212333  0  3.705936  0  0  0.15593  0  3.975592  0  0  0.169263  0  3.990423  0  0  0.129307  0.147192  0  3.965371  0
C  C49  1  0.97868050  0.22073339  0.29102974  1  0  0.212232  0  3.706056  0  0  0.155812  0  3.975728  0  0  0.169146  0  3.990561  0  0  0.129266  0.147062  0  3.965501  0
C  C50  1  0.47868308  0.27926691  0.29103068  1  0  0.212139  0  3.706087  0  0  0.155732  0  3.975748  0  0  0.169066  0  3.990581  0  0  0.12922  0.147008  0  3.965533  0
C  C51  1  0.02131766  0.77926700  0.70897015  1  0  0.212234  0  3.706006  0  0  0.155828  0  3.975668  0  0  0.169162  0  3.990501  0  0  0.129278  0.147087  0  3.965446  0
C  C52  1  0.65746723  0.22450827  0.86035153  1  0  0.230159  0  3.669887  0  0  0.171847  0  3.936528  0  0  0.18719  0  3.949824  0  0  0.142732  0.161796  0  3.927273  0
C  C53  1  0.84253196  0.72450749  0.13964914  1  0  0.230181  0  3.669807  0  0  0.171866  0  3.936448  0  0  0.187215  0  3.949744  0  0  0.14271  0.161814  0  3.927195  0
C  C54  1  0.34253699  0.77549212  0.13964909  1  0  0.230229  0  3.669813  0  0  0.171942  0  3.936444  0  0  0.187289  0  3.949737  0  0  0.142708  0.16189  0  3.927193  0
C  C55  1  0.15747105  0.27549211  0.86035006  1  0  0.230177  0  3.669872  0  0  0.171853  0  3.936504  0  0  0.187203  0  3.949803  0  0  0.142747  0.161801  0  3.927251  0
C  C56  1  0.76190720  0.25662957  0.99462536  1  0  0.22159  0  3.719206  0  0  0.162641  0  3.984214  0  0  0.17792  0  3.998691  0  0  0.132447  0.152573  0  3.974284  0
C  C57  1  0.73809438  0.75662967  0.00537368  1  0  0.221607  0  3.719071  0  0  0.16263  0  3.984097  0  0  0.177913  0  3.998575  0  0  0.132458  0.15256  0  3.974168  0
C  C58  1  0.23809580  0.74337240  0.00537576  1  0  0.221669  0  3.719085  0  0  0.162706  0  3.98413  0  0  0.177986  0  3.998606  0  0  0.132481  0.152638  0  3.974202  0
C  C59  1  0.26190742  0.24337231  0.99462537  1  0  0.221552  0  3.719219  0  0  0.162568  0  3.984249  0  0  0.17785  0  3.998728  0  0  0.132445  0.1525  0  3.974318  0
Br  Br60  1  0.79599097  0.36600192  0.66016377  1  0  -0.513239  0  0.996272  0  0  -0.450445  0  1.299547  0  0  -0.47067  0  1.275332  0  0  -0.264548  -0.436168  0  1.316006  0
Br  Br61  1  0.70400923  0.86600197  0.33983701  1  0  -0.513251  0  0.996262  0  0  -0.45046  0  1.299538  0  0  -0.470684  0  1.275323  0  0  -0.264558  -0.436184  0  1.315998  0
Br  Br62  1  0.20400840  0.63399688  0.33983627  1  0  -0.513238  0  0.996276  0  0  -0.450445  0  1.299552  0  0  -0.470671  0  1.27534  0  0  -0.264547  -0.436168  0  1.316012  0
Br  Br63  1  0.29599014  0.13399762  0.66016367  1  0  -0.513242  0  0.996272  0  0  -0.450447  0  1.29954  0  0  -0.470669  0  1.275324  0  0  -0.264544  -0.436171  0  1.315999  0
Br  Br64  1  0.93919342  0.56006097  0.87269271  1  0  -0.550161  0  0.998415  0  0  -0.493868  0  1.315953  0  0  -0.514157  0  1.291064  0  0  -0.272124  -0.479214  0  1.33281  0
Br  Br65  1  0.56080480  0.06006195  0.12730723  1  0  -0.550161  0  0.998398  0  0  -0.493881  0  1.31595  0  0  -0.514173  0  1.291067  0  0  -0.272125  -0.479229  0  1.332804  0
Br  Br66  1  0.06080959  0.43993783  0.12730522  1  0  -0.550167  0  0.998388  0  0  -0.493879  0  1.31592  0  0  -0.51417  0  1.291037  0  0  -0.272137  -0.479225  0  1.332778  0
Br  Br67  1  0.43919336  0.93993844  0.87269267  1  0  -0.550137  0  0.998393  0  0  -0.49384  0  1.315925  0  0  -0.514132  0  1.29104  0  0  -0.272114  -0.479187  0  1.332782  0
Br  Br68  1  0.46482796  0.56634777  0.88939156  1  0  -0.533032  0  1.070373  0  0  -0.473351  0  1.394227  0  0  -0.493946  0  1.369099  0  0  -0.250921  -0.458505  0  1.41126  0
Br  Br69  1  0.03517552  0.06634719  0.11061026  1  0  -0.533041  0  1.070346  0  0  -0.473372  0  1.394198  0  0  -0.493962  0  1.369069  0  0  -0.250932  -0.458526  0  1.411231  0
Br  Br70  1  0.53517869  0.43365420  0.11060808  1  0  -0.533044  0  1.070362  0  0  -0.473364  0  1.394205  0  0  -0.493956  0  1.369076  0  0  -0.250924  -0.458516  0  1.411235  0
Br  Br71  1  0.96482504  0.93365479  0.88939438  1  0  -0.53303  0  1.07036  0  0  -0.473348  0  1.394202  0  0  -0.49394  0  1.369072  0  0  -0.250925  -0.458504  0  1.41124  0
N  N72  1  0.78582193  0.56059885  0.45364177  1  0  -0.288337  0  3.202842  0  0  -0.21756  0  3.487728  0  0  -0.234844  0  3.505161  0  0  -0.269951  -0.205885  0  3.47567  0
N  N73  1  0.71417751  0.06059966  0.54635831  1  0  -0.288314  0  3.202914  0  0  -0.217534  0  3.487813  0  0  -0.234818  0  3.505246  0  0  -0.269932  -0.205859  0  3.475752  0
N  N74  1  0.21417744  0.43939996  0.54635827  1  0  -0.288331  0  3.20292  0  0  -0.217559  0  3.487827  0  0  -0.234844  0  3.505261  0  0  -0.269958  -0.205885  0  3.47577  0
N  N75  1  0.28582308  0.93939994  0.45364188  1  0  -0.288401  0  3.20296  0  0  -0.217635  0  3.48787  0  0  -0.234919  0  3.505302  0  0  -0.269989  -0.20596  0  3.475811  0
N  N76  1  0.61485699  0.57075453  0.32428811  1  0  -0.419063  0  3.225863  0  0  -0.339291  0  3.504675  0  0  -0.362967  0  3.520291  0  0  -0.370589  -0.323213  0  3.493513  0
N  N77  1  0.88514121  0.07075521  0.67571246  1  0  -0.419108  0  3.22601  0  0  -0.339334  0  3.504824  0  0  -0.363011  0  3.520439  0  0  -0.370583  -0.323256  0  3.493662  0
N  N78  1  0.38514117  0.42924349  0.67571242  1  0  -0.419068  0  3.225868  0  0  -0.339289  0  3.504677  0  0  -0.362967  0  3.520292  0  0  -0.37056  -0.323208  0  3.493504  0
N  N79  1  0.11485816  0.92924360  0.32428822  1  0  -0.419069  0  3.225818  0  0  -0.339295  0  3.504643  0  0  -0.362973  0  3.520258  0  0  -0.370566  -0.323216  0  3.493472  0
N  N80  1  0.86347444  0.52293979  0.39187635  1  0  -0.282178  0  3.208098  0  0  -0.212611  0  3.483316  0  0  -0.229611  0  3.502202  0  0  -0.266782  -0.201025  0  3.470207  0
N  N81  1  0.63652263  0.02294063  0.60812344  1  0  -0.282246  0  3.208141  0  0  -0.212691  0  3.48337  0  0  -0.229692  0  3.502254  0  0  -0.266834  -0.201108  0  3.470271  0
N  N82  1  0.13652372  0.47705823  0.60812354  1  0  -0.282157  0  3.208167  0  0  -0.212595  0  3.483387  0  0  -0.229596  0  3.502273  0  0  -0.26679  -0.201011  0  3.470282  0
N  N83  1  0.36347674  0.97705975  0.39187723  1  0  -0.282107  0  3.208133  0  0  -0.212534  0  3.483343  0  0  -0.229534  0  3.502228  0  0  -0.266764  -0.20095  0  3.470232  0
N  N84  1  0.67339029  0.64981973  0.63021579  1  0  -0.297007  0  3.223146  0  0  -0.226197  0  3.49785  0  0  -0.244129  0  3.518821  0  0  -0.270789  -0.213951  0  3.483228  0
N  N85  1  0.82660902  0.14981971  0.36978426  1  0  -0.296913  0  3.223117  0  0  -0.226097  0  3.497803  0  0  -0.244029  0  3.518775  0  0  -0.270726  -0.213849  0  3.483177  0
N  N86  1  0.32661029  0.35018066  0.36978439  1  0  -0.296915  0  3.223132  0  0  -0.226095  0  3.497813  0  0  -0.244028  0  3.518785  0  0  -0.270723  -0.213849  0  3.483191  0
N  N87  1  0.17339035  0.85017988  0.63021578  1  0  -0.297004  0  3.223187  0  0  -0.226196  0  3.49789  0  0  -0.244129  0  3.518861  0  0  -0.270775  -0.213949  0  3.483265  0
N  N88  1  0.60664420  0.63388205  0.70102969  1  0  -0.282039  0  3.201702  0  0  -0.211776  0  3.469243  0  0  -0.230561  0  3.492362  0  0  -0.258086  -0.198986  0  3.453235  0
N  N89  1  0.89335634  0.13388201  0.29897051  1  0  -0.281995  0  3.20169  0  0  -0.211738  0  3.469237  0  0  -0.230521  0  3.492357  0  0  -0.258073  -0.198947  0  3.453233  0
N  N90  1  0.39335517  0.36611675  0.29896971  1  0  -0.281985  0  3.201735  0  0  -0.211729  0  3.469277  0  0  -0.230513  0  3.492398  0  0  -0.258067  -0.198937  0  3.453264  0
N  N91  1  0.10664304  0.86611759  0.70102889  1  0  -0.281971  0  3.201707  0  0  -0.211709  0  3.469247  0  0  -0.230493  0  3.492367  0  0  -0.258065  -0.198918  0  3.453239  0
N  N92  1  0.53066776  0.79312138  0.64646512  1  0  -0.43012  0  3.212879  0  0  -0.350027  0  3.496328  0  0  -0.373561  0  3.511946  0  0  -0.364785  -0.333981  0  3.485145  0
N  N93  1  0.96933012  0.29312128  0.35353474  1  0  -0.430015  0  3.212907  0  0  -0.349915  0  3.496342  0  0  -0.373449  0  3.511962  0  0  -0.364737  -0.333871  0  3.485161  0
N  N94  1  0.46933040  0.20687821  0.35353477  1  0  -0.429985  0  3.212898  0  0  -0.349874  0  3.49631  0  0  -0.373408  0  3.51193  0  0  -0.364732  -0.333829  0  3.485121  0
N  N95  1  0.03066804  0.70687831  0.64646451  1  0  -0.430049  0  3.212879  0  0  -0.349951  0  3.496312  0  0  -0.373486  0  3.511934  0  0  -0.364756  -0.333906  0  3.485127  0
N  N96  1  0.67376460  0.32907208  0.86790575  1  0  -0.271863  0  3.206002  0  0  -0.202092  0  3.474575  0  0  -0.220322  0  3.49598  0  0  -0.257812  -0.189746  0  3.459756  0
N  N97  1  0.82623202  0.82907052  0.13209523  1  0  -0.271873  0  3.205945  0  0  -0.202109  0  3.474518  0  0  -0.220339  0  3.495924  0  0  -0.257837  -0.189762  0  3.459699  0
N  N98  1  0.32623478  0.67092910  0.13209301  1  0  -0.271923  0  3.20599  0  0  -0.202165  0  3.47457  0  0  -0.220396  0  3.495974  0  0  -0.25782  -0.189817  0  3.459754  0
N  N99  1  0.17376856  0.17092829  0.86790686  1  0  -0.271875  0  3.206001  0  0  -0.202125  0  3.474593  0  0  -0.220355  0  3.495996  0  0  -0.25781  -0.189776  0  3.459774  0
N  N100  1  0.74049648  0.34907484  0.95380103  1  0  -0.284843  0  3.287773  0  0  -0.206412  0  3.54936  0  0  -0.227574  0  3.573799  0  0  -0.27179  -0.192094  0  3.532502  0
N  N101  1  0.75950375  0.84907491  0.04619912  1  0  -0.284875  0  3.28771  0  0  -0.206428  0  3.549298  0  0  -0.227593  0  3.573739  0  0  -0.271792  -0.192108  0  3.532438  0
N  N102  1  0.25950411  0.65092713  0.04619725  1  0  -0.284827  0  3.287662  0  0  -0.206395  0  3.549263  0  0  -0.227558  0  3.573705  0  0  -0.271811  -0.192075  0  3.532406  0
N  N103  1  0.24049925  0.15092864  0.95380327  1  0  -0.284801  0  3.287797  0  0  -0.206365  0  3.549398  0  0  -0.227526  0  3.573836  0  0  -0.271821  -0.192047  0  3.532539  0
N  N104  1  0.71181965  0.17614789  0.93852229  1  0  -0.417824  0  3.254092  0  0  -0.326983  0  3.529312  0  0  -0.353972  0  3.545996  0  0  -0.368528  -0.308667  0  3.517316  0
N  N105  1  0.78817963  0.67614636  0.06147648  1  0  -0.417916  0  3.254125  0  0  -0.327036  0  3.529334  0  0  -0.354025  0  3.546003  0  0  -0.36855  -0.308721  0  3.517345  0
N  N106  1  0.28818093  0.82385566  0.06147790  1  0  -0.41794  0  3.253981  0  0  -0.327113  0  3.529223  0  0  -0.354098  0  3.545892  0  0  -0.368555  -0.308799  0  3.517238  0
N  N107  1  0.21182096  0.32385482  0.93852243  1  0  -0.417912  0  3.254057  0  0  -0.327019  0  3.529257  0  0  -0.354015  0  3.545937  0  0  -0.368551  -0.308706  0  3.517271  0
