# generated using pymatgen
data_MgH7C11SN2O3
_symmetry_space_group_name_H-M   'P 1'
_cell_length_a   6.77980234
_cell_length_b   36.46965017
_cell_length_c   36.47713830
_cell_angle_alpha   119.61823354
_cell_angle_beta   93.50770456
_cell_angle_gamma   93.58285795
_symmetry_Int_Tables_number   1
_chemical_formula_structural   MgH7C11SN2O3
_chemical_formula_sum   'Mg6 H42 C66 S6 N12 O18'
_cell_volume   7781.24884530
_cell_formula_units_Z   6
loop_
 _symmetry_equiv_pos_site_id
 _symmetry_equiv_pos_as_xyz
  1  'x, y, z'
loop_
 _atom_site_type_symbol
 _atom_site_label
 _atom_site_symmetry_multiplicity
 _atom_site_fract_x
 _atom_site_fract_y
 _atom_site_fract_z
 _atom_site_occupancy
 _atom_site_pbe_bader_charge
 _atom_site_pbe_bader_spin_density
 _atom_site_pbe_cm5_charge
 _atom_site_pbe_ddec_charge
 _atom_site_pbe_ddec_spin_density
 _atom_site_pbe_ddec_sum_bond_order
 _atom_site_pbe_magmom
Mg  Mg0  1  0.54003201  0.31955685  0.68637398  1  1.682438  0  0.906821  1.410445  0  1.331811  0
Mg  Mg1  1  0.22053086  0.36682782  0.68048289  1  1.683053  0  0.906811  1.41033  0  1.332538  0
Mg  Mg2  1  0.85381623  0.31371132  0.63324877  1  1.683021  0  0.906578  1.410324  0  1.332033  0
Mg  Mg3  1  0.78863326  0.67007822  0.36377381  1  1.683669  0  0.907038  1.407488  0  1.332118  0
Mg  Mg4  1  0.11873213  0.69366144  0.32987421  1  1.683264  0  0.906998  1.407993  0  1.330565  0
Mg  Mg5  1  0.42504941  0.63617210  0.30629704  1  1.682464  0  0.907298  1.407867  0  1.330753  0
H  H6  1  0.47618566  0.92677195  0.51718399  1  0.468631  0  0.318905  0.283214  0  0.924662  0
H  H7  1  0.54904632  0.59037807  0.07307117  1  0.445234  0  0.318726  0.282933  0  0.925485  0
H  H8  1  0.95849669  0.48283358  0.40964607  1  0.476271  0  0.318567  0.28313  0  0.924079  0
H  H9  1  0.48434090  0.00016096  0.52788690  1  0.028809  0  0.103201  0.117663  0  1.000155  0
H  H10  1  0.48422319  0.52769510  0.99975799  1  0.027204  0  0.10339  0.118086  0  1.00005  0
H  H11  1  0.95656757  0.47216505  0.47232497  1  0.03035  0  0.103864  0.118604  0  1.000149  0
H  H12  1  0.61438039  0.06056408  0.53275102  1  0.405416  0  0.32103  0.264899  0  0.930577  0
H  H13  1  0.55483028  0.47213989  0.93937131  1  0.419491  0  0.320747  0.264664  0  0.930435  0
H  H14  1  0.08201945  0.46742036  0.52787350  1  0.442997  0  0.321334  0.264543  0  0.93033  0
H  H15  1  0.72693505  0.12532991  0.55030691  1  0.441864  0  0.324911  0.27497  0  0.919961  0
H  H16  1  0.60178021  0.42490184  0.87459533  1  0.43671  0  0.324782  0.274699  0  0.919642  0
H  H17  1  0.17714884  0.44986144  0.57508911  1  0.444002  0  0.324607  0.274592  0  0.919428  0
H  H18  1  0.77560237  0.19996279  0.59065842  1  0.058895  0  0.105605  0.130446  0  1.006495  0
H  H19  1  0.57551578  0.39065928  0.79995075  1  0.055966  0  0.105538  0.13026  0  1.006576  0
H  H20  1  0.18504955  0.40938091  0.60934037  1  0.079991  0  0.105633  0.130092  0  1.006958  0
H  H21  1  0.06769420  0.19980718  0.54782167  1  0.117741  0  0.105174  0.110925  0  1.000408  0
H  H22  1  0.86738087  0.34809653  0.80032429  1  0.114965  0  0.105172  0.110487  0  0.999584  0
H  H23  1  0.51957049  0.45222031  0.65194910  1  0.112246  0  0.104979  0.110431  0  0.999646  0
H  H24  1  0.22620372  0.13303336  0.51141301  1  0.083238  0  0.090781  0.11342  0  1.04754  0
H  H25  1  0.09299965  0.37847844  0.86703114  1  0.077771  0  0.091016  0.112785  0  1.049078  0
H  H26  1  0.71471827  0.48859070  0.62156461  1  0.097551  0  0.090714  0.113211  0  1.047895  0
H  H27  1  0.57256210  0.00717657  0.41524750  1  0.087067  0  0.10048  0.12214  0  1.025465  0
H  H28  1  0.56528280  0.40805074  0.99277655  1  0.132195  0  0.100405  0.121907  0  1.025317  0
H  H29  1  0.15455389  0.58497228  0.59200852  1  0.089909  0  0.100203  0.121659  0  1.025963  0
H  H30  1  0.46582934  0.92997723  0.37151388  1  0.085749  0  0.11069  0.110366  0  0.972148  0
H  H31  1  0.53582331  0.44150286  0.06996762  1  0.090007  0  0.111044  0.110336  0  0.972746  0
H  H32  1  0.09135118  0.62864200  0.55849546  1  0.109725  0  0.110859  0.110662  0  0.971973  0
H  H33  1  0.37348128  0.88730641  0.40479878  1  0.087991  0  0.109836  0.123411  0  1.003081  0
H  H34  1  0.48635645  0.51744716  0.11261500  1  0.088471  0  0.109962  0.124726  0  1.002235  0
H  H35  1  0.96685699  0.59523714  0.48251858  1  0.083064  0  0.109807  0.123497  0  1.003237  0
H  H36  1  0.08429763  0.90019941  0.44350536  1  0.443845  0  0.321704  0.272828  0  0.926496  0
H  H37  1  0.18422477  0.54323847  0.09982354  1  0.447862  0  0.322054  0.273257  0  0.926039  0
H  H38  1  0.63945853  0.55650305  0.45670555  1  0.445401  0  0.321744  0.273064  0  0.927072  0
H  H39  1  0.17169353  0.79357177  0.41811367  1  0.101698  0  0.105516  0.141729  0  1.01712  0
H  H40  1  0.37842831  0.62441687  0.20643386  1  0.122043  0  0.105499  0.141144  0  1.017433  0
H  H41  1  0.75337222  0.58193752  0.37556233  1  0.12008  0  0.105509  0.141529  0  1.017799  0
H  H42  1  0.47998881  0.81429670  0.38598747  1  0.082591  0  0.102424  0.104924  0  1.007886  0
H  H43  1  0.66571064  0.57158466  0.18573252  1  0.06768  0  0.102651  0.105059  0  1.009146  0
H  H44  1  0.09272344  0.61382576  0.42810905  1  0.084254  0  0.102283  0.104586  0  1.008934  0
H  H45  1  0.73258486  0.87736315  0.42566424  1  0.074151  0  0.091652  0.101173  0  1.040745  0
H  H46  1  0.85531971  0.54823097  0.12268157  1  0.03763  0  0.091301  0.101013  0  1.040481  0
H  H47  1  0.30522490  0.57409035  0.45146430  1  0.039745  0  0.091413  0.101284  0  1.040936  0
C  C48  1  0.26052212  0.88211032  0.47770618  1  0.679059  0  0.222676  0.373683  0  4.165583  0
C  C49  1  0.37854964  0.59554065  0.11782032  1  0.682266  0  0.221948  0.373216  0  4.165535  0
C  C50  1  0.78198816  0.52223536  0.40444843  1  0.662555  0  0.221844  0.372797  0  4.169328  0
C  C51  1  0.42596627  0.94097657  0.46888835  1  0.308682  0  0.085465  0.24246  0  4.087426  0
C  C52  1  0.48501688  0.52786888  0.05893635  1  0.400196  0  0.085046  0.243204  0  4.087215  0
C  C53  1  0.95603172  0.53116118  0.47213653  1  0.35755  0  0.085594  0.243401  0  4.085062  0
C  C54  1  0.48416660  0.98467145  0.49346453  1  -0.018576  0  -0.112253  -0.301828  0  3.955649  0
C  C55  1  0.49950823  0.50875470  0.01524392  1  -0.102311  0  -0.111683  -0.301664  0  3.955009  0
C  C56  1  0.98999917  0.50661214  0.49126968  1  0.002158  0  -0.112768  -0.303256  0  3.955928  0
C  C57  1  0.53521061  0.00867342  0.47439679  1  0.230336  0  0.089565  0.25545  0  4.065316  0
C  C58  1  0.52666308  0.46569840  0.99126460  1  0.392041  0  0.089101  0.254204  0  4.065887  0
C  C59  1  0.05957770  0.52574679  0.53434540  1  0.331701  0  0.089727  0.254858  0  4.065689  0
C  C60  1  0.53972036  0.08576005  0.49592725  1  0.639644  0  0.222863  0.368981  0  4.130411  0
C  C61  1  0.45381311  0.41014834  0.91420928  1  0.643868  0  0.222726  0.368306  0  4.131283  0
C  C62  1  0.04353036  0.50418624  0.58989837  1  0.645648  0  0.223046  0.367655  0  4.131751  0
C  C63  1  0.51122580  0.16187970  0.54907837  1  0.357404  0  0.099702  0.282869  0  4.066809  0
C  C64  1  0.34921605  0.38720119  0.83810793  1  0.322629  0  0.099038  0.281328  0  4.068527  0
C  C65  1  0.96239343  0.45101871  0.61286632  1  0.313356  0  0.099152  0.281173  0  4.069559  0
C  C66  1  0.61917410  0.19938430  0.58104845  1  -0.045767  0  -0.120966  -0.337528  0  3.922886  0
C  C67  1  0.41961615  0.38165998  0.80059120  1  0.007041  0  -0.12093  -0.337204  0  3.923634  0
C  C68  1  0.03833526  0.41906657  0.61842621  1  -0.00027  0  -0.121023  -0.336914  0  3.923794  0
C  C69  1  0.53097340  0.23744561  0.60238923  1  0.630878  0  0.094979  0.389176  0  4.095315  0
C  C70  1  0.29321721  0.36495593  0.76257676  1  0.57265  0  0.094625  0.38832  0  4.097819  0
C  C71  1  0.92865345  0.39773777  0.63515943  1  0.589663  0  0.094351  0.388707  0  4.095841  0
C  C72  1  0.32584457  0.23705288  0.58992946  1  0.02408  0  -0.052065  -0.231618  0  3.988073  0
C  C73  1  0.08840701  0.35291372  0.76301530  1  -0.015723  0  -0.051762  -0.231262  0  3.989103  0
C  C74  1  0.73591107  0.41018579  0.64720481  1  0.013407  0  -0.052005  -0.232131  0  3.989666  0
C  C75  1  0.22293604  0.19905233  0.55687176  1  -0.21153  0  -0.087487  -0.049227  0  4.044704  0
C  C76  1  0.02346846  0.35787186  0.80102424  1  -0.07863  0  -0.087289  -0.049059  0  4.043509  0
C  C77  1  0.66600393  0.44320889  0.64221803  1  -0.12482  0  -0.087078  -0.048389  0  4.043755  0
C  C78  1  0.31012630  0.16185220  0.53657179  1  0.104618  0  -0.121421  -0.228826  0  4.032571  0
C  C79  1  0.14802835  0.37476793  0.83818623  1  0.055564  0  -0.122  -0.227547  0  4.032556  0
C  C80  1  0.77361001  0.46348832  0.62529794  1  -0.001246  0  -0.121632  -0.228464  0  4.032623  0
C  C81  1  0.21318442  0.27374652  0.61054986  1  1.48568  0  0.231357  0.671903  0  4.139982  0
C  C82  1  0.93912032  0.33684306  0.72632898  1  1.489053  0  0.231798  0.673503  0  4.141193  0
C  C83  1  0.60249374  0.38954849  0.66326884  1  1.494519  0  0.231717  0.67362  0  4.140198  0
C  C84  1  0.53098065  0.98884486  0.43015818  1  0.139827  0  -0.103667  -0.195827  0  3.984047  0
C  C85  1  0.54211419  0.44128776  0.01109774  1  -0.039051  0  -0.103145  -0.193891  0  3.983602  0
C  C86  1  0.09856184  0.57000986  0.55876028  1  0.005281  0  -0.103177  -0.194283  0  3.983092  0
C  C87  1  0.46947395  0.94549949  0.40592729  1  -0.090761  0  -0.086331  -0.043709  0  4.047916  0
C  C88  1  0.52402791  0.46039051  0.05443783  1  -0.083346  0  -0.086582  -0.044045  0  4.047712  0
C  C89  1  0.06121138  0.59420574  0.53961308  1  -0.048788  0  -0.086259  -0.044086  0  4.048254  0
C  C90  1  0.41627603  0.92128754  0.42444449  1  0.012121  0  -0.105944  -0.21447  0  3.999701  0
C  C91  1  0.49511998  0.50312584  0.07864789  1  -0.007155  0  -0.106881  -0.217456  0  4.000444  0
C  C92  1  0.99013000  0.57562716  0.49686658  1  -0.060506  0  -0.106817  -0.215592  0  4.000926  0
C  C93  1  0.96835402  0.83929942  0.42495192  1  0.365586  0  0.094584  0.269746  0  4.061538  0
C  C94  1  0.12927497  0.58558017  0.16069443  1  0.313665  0  0.096134  0.269959  0  4.062489  0
C  C95  1  0.54240905  0.57492771  0.41428265  1  0.338901  0  0.096019  0.270877  0  4.061506  0
C  C96  1  0.02055127  0.79864506  0.41149291  1  -0.017226  0  -0.111073  -0.30605  0  3.923154  0
C  C97  1  0.22212993  0.61275249  0.20135335  1  0.06271  0  -0.111107  -0.304938  0  3.922745  0
C  C98  1  0.60858249  0.58845579  0.38715391  1  0.011664  0  -0.111385  -0.306385  0  3.921815  0
C  C99  1  0.88025083  0.76284302  0.38890145  1  0.607992  0  0.098369  0.387443  0  4.075071  0
C  C100  1  0.11749489  0.62596852  0.23713427  1  0.578997  0  0.099072  0.387291  0  4.077097  0
C  C101  1  0.49098972  0.61103883  0.37393087  1  0.575109  0  0.099024  0.387766  0  4.074124  0
C  C102  1  0.67966551  0.76890112  0.38008717  1  -0.020779  0  -0.043142  -0.215261  0  3.953381  0
C  C103  1  0.91081609  0.61110723  0.23109130  1  -0.027488  0  -0.043376  -0.215405  0  3.952763  0
C  C104  1  0.29901871  0.61981911  0.38874176  1  -0.001275  0  -0.042868  -0.214603  0  3.952779  0
C  C105  1  0.63309909  0.81049044  0.39331490  1  0.002795  0  -0.086067  -0.047856  0  4.033087  0
C  C106  1  0.82259302  0.58273591  0.18951709  1  -0.001676  0  -0.086695  -0.048726  0  4.033733  0
C  C107  1  0.23866783  0.60651496  0.41701538  1  -0.04033  0  -0.085878  -0.047484  0  4.032077  0
C  C108  1  0.77320568  0.84542913  0.41516727  1  -0.061124  0  -0.119618  -0.23142  0  4.027335  0
C  C109  1  0.92784693  0.56967840  0.15458652  1  -0.019867  0  -0.119406  -0.230834  0  4.026777  0
C  C110  1  0.35663751  0.58462354  0.43008311  1  -0.004533  0  -0.119854  -0.23183  0  4.027017  0
C  C111  1  0.52009898  0.73372709  0.35764430  1  1.499559  0  0.23565  0.674537  0  4.126885  0
C  C112  1  0.78634765  0.62385062  0.26625995  1  1.501607  0  0.236092  0.675522  0  4.125474  0
C  C113  1  0.16219219  0.64229072  0.37602805  1  1.496435  0  0.235438  0.674598  0  4.127342  0
S  S114  1  0.29376194  0.85368994  0.50120661  1  0.00041  0  -0.235835  -0.423824  0  1.935769  0
S  S115  1  0.44035648  0.64746799  0.14619487  1  -0.002216  0  -0.23553  -0.423398  0  1.935272  0
S  S116  1  0.79203128  0.49867152  0.35253394  1  0.004059  0  -0.235438  -0.423221  0  1.936445  0
S  S117  1  0.42498752  0.08120372  0.45245904  1  0.030051  0  -0.179592  -0.357008  0  2.009666  0
S  S118  1  0.34290476  0.37131146  0.91883196  1  0.027182  0  -0.179518  -0.356964  0  2.010085  0
S  S119  1  0.97188486  0.54760963  0.62883764  1  0.027031  0  -0.179873  -0.357126  0  2.01117  0
N  N120  1  0.38723683  0.91846240  0.49024304  1  -1.251495  0  -0.410551  -0.376686  0  3.605722  0
N  N121  1  0.46869303  0.57172867  0.08143506  1  -1.208282  0  -0.409226  -0.376148  0  3.606341  0
N  N122  1  0.89623297  0.50976091  0.42828076  1  -1.251138  0  -0.409461  -0.376244  0  3.605032  0
N  N123  1  0.58725685  0.05255149  0.50180478  1  -1.164427  0  -0.399287  -0.350984  0  3.576016  0
N  N124  1  0.53510226  0.44921318  0.94738745  1  -1.211102  0  -0.399258  -0.350417  0  3.574998  0
N  N125  1  0.08486451  0.49834875  0.55081162  1  -1.230466  0  -0.399733  -0.349272  0  3.574934  0
N  N126  1  0.60346563  0.12441426  0.53245380  1  -1.204008  0  -0.403611  -0.366422  0  3.584305  0
N  N127  1  0.47906376  0.40799249  0.87553717  1  -1.205685  0  -0.403003  -0.365125  0  3.583596  0
N  N128  1  0.07127532  0.46766324  0.59202128  1  -1.199701  0  -0.402985  -0.364999  0  3.583344  0
N  N129  1  0.10928056  0.87507008  0.44745287  1  -1.252298  0  -0.394276  -0.338086  0  3.586041  0
N  N130  1  0.23442846  0.57231687  0.12493645  1  -1.262188  0  -0.396186  -0.339326  0  3.587732  0
N  N131  1  0.66070131  0.55247600  0.42760966  1  -1.232068  0  -0.395463  -0.339371  0  3.59018  0
O  O132  1  0.03457640  0.27235578  0.59635469  1  -1.246521  0  -0.364736  -0.650469  0  2.147187  0
O  O133  1  0.76196203  0.32398334  0.72771326  1  -1.248775  0  -0.364543  -0.651101  0  2.148365  0
O  O134  1  0.43817089  0.40376936  0.67611035  1  -1.242675  0  -0.363965  -0.650559  0  2.148182  0
O  O135  1  0.29685637  0.30738891  0.64442327  1  -1.30527  0  -0.408501  -0.774484  0  2.423002  0
O  O136  1  0.98918527  0.33714279  0.69270594  1  -1.300656  0  -0.408637  -0.774641  0  2.423435  0
O  O137  1  0.65217571  0.35562794  0.66297488  1  -1.299507  0  -0.408952  -0.775189  0  2.423251  0
O  O138  1  0.64157165  0.27205835  0.63338841  1  -1.318112  0  -0.445269  -0.777328  0  2.297657  0
O  O139  1  0.36920683  0.36129191  0.72794298  1  -1.31301  0  -0.445098  -0.77679  0  2.299755  0
O  O140  1  0.00820819  0.36673865  0.63877704  1  -1.306568  0  -0.445183  -0.777128  0  2.298779  0
O  O141  1  0.34550040  0.74017047  0.34877614  1  -1.240647  0  -0.356449  -0.641824  0  2.144759  0
O  O142  1  0.60528068  0.60850813  0.25982567  1  -1.24326  0  -0.356435  -0.641904  0  2.144676  0
O  O143  1  0.99631651  0.65117301  0.39133179  1  -1.236252  0  -0.356242  -0.64197  0  2.144061  0
O  O144  1  0.55996720  0.69572469  0.34750195  1  -1.297408  0  -0.401226  -0.770749  0  2.405852  0
O  O145  1  0.86411100  0.65176286  0.30422817  1  -1.300953  0  -0.401242  -0.771156  0  2.406161  0
O  O146  1  0.21246399  0.65244437  0.34818577  1  -1.297101  0  -0.401163  -0.770787  0  2.406766  0
O  O147  1  0.94417421  0.72473888  0.37637108  1  -1.30748  0  -0.451555  -0.775094  0  2.308567  0
O  O148  1  0.21943672  0.65155795  0.27522123  1  -1.307758  0  -0.452169  -0.775283  0  2.309601  0
O  O149  1  0.56769760  0.62359547  0.34839227  1  -1.311832  0  -0.452127  -0.775208  0  2.309192  0
