# generated using pymatgen
data_Zn2H41C42N8O11
_symmetry_space_group_name_H-M   'P 1'
_cell_length_a   19.41477917
_cell_length_b   19.17722506
_cell_length_c   19.12387497
_cell_angle_alpha   108.80659203
_cell_angle_beta   106.72735587
_cell_angle_gamma   109.56950073
_symmetry_Int_Tables_number   1
_chemical_formula_structural   Zn2H41C42N8O11
_chemical_formula_sum   'Zn4 H82 C84 N16 O22'
_cell_volume   5691.23097537
_cell_formula_units_Z   2
loop_
 _symmetry_equiv_pos_site_id
 _symmetry_equiv_pos_as_xyz
  1  'x, y, z'
loop_
 _atom_site_type_symbol
 _atom_site_label
 _atom_site_symmetry_multiplicity
 _atom_site_fract_x
 _atom_site_fract_y
 _atom_site_fract_z
 _atom_site_occupancy
 _atom_site_pbe_bader_charge
 _atom_site_pbe_bader_spin_density
 _atom_site_pbe_cm5_charge
 _atom_site_pbe_ddec_charge
 _atom_site_pbe_ddec_spin_density
 _atom_site_pbe_ddec_sum_bond_order
 _atom_site_pbe_magmom
Zn  Zn0  1  0.97743015  0.09056748  0.61348880  1  1.21011  0  0.800239  0.807243  0  2.120615  0
Zn  Zn1  1  0.99289754  0.87888340  0.39607815  1  1.225107  0  0.779994  0.788711  0  2.111933  0
Zn  Zn2  1  0.87531747  0.87291594  0.50621643  1  1.212194  0  0.759493  0.729373  0  2.303372  0
Zn  Zn3  1  0.10210022  0.10169790  0.50617237  1  1.201221  0  0.764093  0.743025  0  2.267102  0
H  H4  1  0.08117127  0.13965913  0.86228565  1  0.638654  0  0.348961  0.381562  0  0.852594  0
H  H5  1  0.58513966  0.70003042  0.86056375  1  0.065935  0  0.101075  0.072618  0  0.984274  0
H  H6  1  0.57003158  0.78077040  0.92130189  1  0.052784  0  0.095581  0.053278  0  0.977035  0
H  H7  1  0.49412197  0.69368834  0.73229177  1  0.034392  0  0.093342  0.084823  0  0.982356  0
H  H8  1  0.48110563  0.77507563  0.79292267  1  0.026066  0  0.091773  0.08227  0  0.973108  0
H  H9  1  0.63367410  0.87236028  0.85839557  1  0.054746  0  0.087607  0.112704  0  1.000562  0
H  H10  1  0.58933547  0.83205847  0.74974682  1  0.022471  0  0.086755  0.114465  0  1.027646  0
H  H11  1  0.64615689  0.79033114  0.79674659  1  0.008211  0  0.086602  0.110661  0  1.005734  0
H  H12  1  0.46585947  0.77475323  0.97461014  1  0.6115  0  0.331564  0.359854  0  0.893658  0
H  H13  1  0.40897185  0.42083819  0.85170366  1  0.606266  0  0.296607  0.33053  0  0.963248  0
H  H14  1  0.20546616  0.85643927  0.37507308  1  0.626718  0  0.345451  0.379616  0  0.859022  0
H  H15  1  0.93790898  0.86280184  0.15097436  1  0.618286  0  0.342113  0.374873  0  0.865249  0
H  H16  1  0.76456654  0.12208781  0.54623721  1  0.615325  0  0.345013  0.377372  0  0.861528  0
H  H17  1  0.73796122  0.56686915  0.43900917  1  0.041635  0  0.107067  0.075445  0  0.956395  0
H  H18  1  0.80500382  0.57192970  0.39144266  1  0.040604  0  0.102203  0.066405  0  0.969837  0
H  H19  1  0.70743388  0.66952771  0.39940032  1  0.019573  0  0.087499  0.082087  0  0.979912  0
H  H20  1  0.77439808  0.67570247  0.35286473  1  0.040725  0  0.090171  0.091569  0  1.007147  0
H  H21  1  0.68587331  0.52208229  0.25100032  1  0.004649  0  0.085838  0.111135  0  1.001323  0
H  H22  1  0.63036260  0.57867697  0.24507880  1  0.050694  0  0.090025  0.122915  0  1.007865  0
H  H23  1  0.61725422  0.51598407  0.29610205  1  0.009293  0  0.081885  0.101782  0  1.012031  0
H  H24  1  0.11435516  0.24497037  0.37227737  1  0.060598  0  0.103183  0.072514  0  1.00039  0
H  H25  1  0.11871775  0.31327666  0.46410090  1  0.081175  0  0.100836  0.068045  0  1.00191  0
H  H26  1  0.39853949  0.43425861  0.00348250  1  0.026044  0  0.095941  0.059722  0  0.990844  0
H  H27  1  0.98502754  0.23732955  0.28795420  1  0.04551  0  0.092679  0.08842  0  0.968568  0
H  H28  1  0.98573508  0.30330948  0.37806195  1  0.059038  0  0.090381  0.089961  0  0.9942  0
H  H29  1  0.11861130  0.41945275  0.41052190  1  0.066578  0  0.085248  0.111776  0  1.008317  0
H  H30  1  0.04315454  0.38654950  0.31149597  1  0.027294  0  0.08879  0.117323  0  0.998797  0
H  H31  1  0.11966403  0.35432195  0.32072435  1  0.001338  0  0.081919  0.103046  0  1.009724  0
H  H32  1  0.35168228  0.30529582  0.57538279  1  0.046091  0  0.101197  0.064518  0  0.97442  0
H  H33  1  0.36337847  0.34600393  0.67834448  1  0.063145  0  0.099026  0.059493  0  0.996772  0
H  H34  1  0.32227650  0.41652274  0.55789818  1  0.012604  0  0.09032  0.084187  0  0.97333  0
H  H35  1  0.32511593  0.45421907  0.65681192  1  0.05585  0  0.092524  0.09448  0  0.990897  0
H  H36  1  0.47278289  0.49301659  0.72426444  1  0.044309  0  0.083166  0.109064  0  1.013344  0
H  H37  1  0.35596139  0.49329839  0.05170065  1  0.065865  0  0.096579  0.0639  0  0.978385  0
H  H38  1  0.45827227  0.54139114  0.66050640  1  0.025963  0  0.08651  0.113648  0  1.012353  0
H  H39  1  0.47266815  0.45187791  0.62655982  1  -0.007284  0  0.081772  0.102053  0  1.010426  0
H  H40  1  0.61541043  0.82919142  0.36767264  1  0.038403  0  0.096995  0.057145  0  1.023411  0
H  H41  1  0.61901350  0.76088288  0.28142969  1  0.077608  0  0.103703  0.072671  0  0.99618  0
H  H42  1  0.61410134  0.92554690  0.30745419  1  0.019607  0  0.090687  0.086385  0  0.973048  0
H  H43  1  0.62074516  0.86107377  0.22180919  1  0.04836  0  0.091473  0.092497  0  0.992759  0
H  H44  1  0.48670834  0.74120498  0.18436405  1  0.024447  0  0.084185  0.11471  0  1.011019  0
H  H45  1  0.47524438  0.82909971  0.18407205  1  0.035115  0  0.085424  0.115375  0  1.006726  0
H  H46  1  0.47856138  0.80706220  0.26809723  1  0.02266  0  0.081414  0.103107  0  1.009649  0
H  H47  1  0.12244575  0.76862876  0.51732712  1  0.609686  0  0.341679  0.372608  0  0.866875  0
H  H48  1  0.48332109  0.45065400  0.13914546  1  0.033766  0  0.09426  0.087143  0  0.978873  0
H  H49  1  0.01706759  0.33842961  0.66729329  1  0.632479  0  0.346898  0.381673  0  0.855491  0
H  H50  1  0.21532997  0.35147692  0.84648438  1  0.594263  0  0.328315  0.359342  0  0.890562  0
H  H51  1  0.78132700  0.70041351  0.15227741  1  0.626368  0  0.341148  0.375119  0  0.866136  0
H  H52  1  0.38352061  0.19752642  0.71892374  1  0.069596  0  0.106726  0.07489  0  0.956774  0
H  H53  1  0.37061340  0.09587064  0.66273328  1  0.047772  0  0.097401  0.059824  0  0.997992  0
H  H54  1  0.26731939  0.13537788  0.74953143  1  0.031317  0  0.095667  0.101014  0  0.968791  0
H  H55  1  0.25262906  0.03417542  0.69298081  1  0.059836  0  0.094332  0.093484  0  0.96948  0
H  H56  1  0.39385991  0.07255709  0.79240780  1  0.021916  0  0.084181  0.106235  0  1.007768  0
H  H57  1  0.33409075  0.08735630  0.84500081  1  0.020842  0  0.090121  0.118354  0  0.998273  0
H  H58  1  0.40982870  0.17473075  0.84983685  1  0.026183  0  0.084226  0.106075  0  1.007662  0
H  H59  1  0.44143114  0.50832596  0.18760994  1  0.00777  0  0.091879  0.083144  0  0.971157  0
H  H60  1  0.57797060  0.74151518  0.47943551  1  0.09473  0  0.110179  0.080759  0  0.950453  0
H  H61  1  0.57806194  0.82961177  0.46662531  1  0.048976  0  0.100216  0.065056  0  1.012117  0
H  H62  1  0.63846019  0.82404073  0.63091015  1  0.029374  0  0.091379  0.08412  0  0.979198  0
H  H63  1  0.65094502  0.91646813  0.62278040  1  0.061163  0  0.093146  0.093477  0  0.987463  0
H  H64  1  0.49927683  0.85679613  0.54622349  1  0.041509  0  0.087463  0.118974  0  1.014529  0
H  H65  1  0.52608949  0.85810147  0.64344108  1  0.025849  0  0.089599  0.117007  0  1.007046  0
H  H66  1  0.48396658  0.76279314  0.55299389  1  0.032385  0  0.084791  0.107912  0  1.002756  0
H  H67  1  0.82111952  0.77062913  0.62170080  1  0.034913  0  0.094489  0.055362  0  0.997113  0
H  H68  1  0.87755055  0.85116854  0.72650409  1  0.046784  0  0.098894  0.061614  0  0.994719  0
H  H69  1  0.88970719  0.68949037  0.66138863  1  0.053553  0  0.096567  0.096586  0  0.973646  0
H  H70  1  0.30066051  0.38230864  0.09999485  1  0.012424  0  0.085361  0.109035  0  1.005317  0
H  H71  1  0.94031836  0.76801694  0.76546253  1  0.039564  0  0.093717  0.089167  0  0.97265  0
H  H72  1  0.80276451  0.74087798  0.76576132  1  0.014656  0  0.08372  0.106495  0  1.008334  0
H  H73  1  0.81451623  0.64949611  0.74233849  1  0.030983  0  0.088912  0.116921  0  0.999944  0
H  H74  1  0.75307075  0.66075366  0.66225368  1  0.035499  0  0.082508  0.104549  0  1.009914  0
H  H75  1  0.26383180  0.22104578  0.37303051  1  0.051884  0  0.106467  0.074539  0  0.959319  0
H  H76  1  0.20624477  0.11964637  0.28599951  1  0.087573  0  0.099988  0.06855  0  0.99614  0
H  H77  1  0.29999835  0.15559373  0.46407772  1  0.022279  0  0.091482  0.088799  0  0.985549  0
H  H78  1  0.24799372  0.05715974  0.37609527  1  0.031134  0  0.089173  0.085557  0  0.989336  0
H  H79  1  0.34498256  0.11205181  0.31868421  1  0.031074  0  0.086635  0.113121  0  0.99963  0
H  H80  1  0.39795097  0.12086960  0.41641286  1  0.04316  0  0.088142  0.121026  0  1.009063  0
H  H81  1  0.37007721  0.35748522  0.15697048  1  0.041642  0  0.087581  0.114382  0  1.002572  0
H  H82  1  0.39781861  0.21046912  0.40813552  1  0.013244  0  0.081979  0.102818  0  1.009418  0
H  H83  1  0.34794033  0.66104575  0.01221187  1  0.620201  0  0.32673  0.356654  0  0.897815  0
H  H84  1  0.59756263  0.55593815  0.91557686  1  0.604011  0  0.327553  0.36093  0  0.89224  0
H  H85  1  0.34255979  0.32466174  0.05055445  1  0.027716  0  0.086672  0.112384  0  1.002961  0
C  C86  1  0.03202497  0.05466012  0.75224733  1  1.075818  0  0.196701  0.38237  0  4.132237  0
C  C87  1  0.47328909  0.63654981  0.90657939  1  0.568  0  0.076066  0.087637  0  3.784865  0
C  C88  1  0.40873335  0.60594881  0.98140147  1  0.552374  0  0.067706  0.143416  0  3.781237  0
C  C89  1  0.53938791  0.61280858  0.94906850  1  0.556184  0  0.07403  0.153856  0  3.760108  0
C  C90  1  0.29142456  0.41032388  0.77292687  1  -0.663026  0  -0.057679  -0.077621  0  4.285511  0
C  C91  1  0.67725187  0.74816395  0.17875469  1  -0.247207  0  -0.059492  -0.08006  0  4.277905  0
C  C92  1  0.47041086  0.53321450  0.93743938  1  0.541716  0  0.064368  0.139483  0  3.813394  0
C  C93  1  0.47900820  0.68630169  0.99386162  1  0.536912  0  0.067324  0.138772  0  3.794301  0
C  C94  1  0.40304805  0.55499239  0.89374842  1  0.035808  0  -0.018065  -0.033269  0  3.878536  0
C  C95  1  0.54549970  0.66445734  0.03760089  1  0.076962  0  -0.010362  -0.021096  0  3.83344  0
C  C96  1  0.33451297  0.48504935  0.82308270  1  0.270632  0  -0.076662  -0.140467  0  4.094191  0
C  C97  1  0.99357809  0.94228727  0.26362555  1  1.085827  0  0.192403  0.384568  0  4.121101  0
C  C98  1  0.61841973  0.71444374  0.11159146  1  -0.162864  0  -0.064759  -0.108654  0  4.137381  0
C  C99  1  0.32433082  0.99938960  0.50364867  1  -0.386013  0  -0.034895  -0.029386  0  4.179414  0
C  C100  1  0.65001667  0.98448349  0.51893746  1  -0.222694  0  -0.041807  -0.052681  0  4.203468  0
C  C101  1  0.17201119  0.92503607  0.43744861  1  1.114139  0  0.198968  0.389154  0  4.137623  0
C  C102  1  0.79581193  0.03867526  0.54641833  1  1.109529  0  0.200244  0.396789  0  4.123727  0
C  C103  1  0.38846242  0.00190155  0.50250527  1  0.161  0  -0.062634  -0.095636  0  4.365154  0
C  C104  1  0.58920872  0.99467105  0.51157486  1  -0.078373  0  -0.06024  -0.087951  0  4.363932  0
C  C105  1  0.45781430  0.00269475  0.50383298  1  -0.055001  0  -0.042807  -0.03444  0  4.309461  0
C  C106  1  0.52172273  0.00110845  0.50611804  1  -0.098747  0  -0.04404  -0.040925  0  4.306926  0
C  C107  1  0.03469655  0.34682236  0.53913038  1  -0.381062  0  -0.038702  -0.043503  0  4.191522  0
C  C108  1  0.24958109  0.99174449  0.49944978  1  0.157252  0  -0.057351  -0.244003  0  4.269002  0
C  C109  1  0.00338298  0.66022223  0.52294585  1  -0.361171  0  -0.042033  -0.039038  0  4.176739  0
C  C110  1  0.04164203  0.41546116  0.54590815  1  0.107492  0  -0.058751  -0.086886  0  4.357041  0
C  C111  1  0.02144008  0.60756068  0.53442672  1  0.041321  0  -0.063942  -0.089263  0  4.373132  0
C  C112  1  0.04127282  0.48515060  0.54649924  1  -0.045828  0  -0.042611  -0.035909  0  4.295119  0
C  C113  1  0.03556939  0.54650715  0.54284848  1  -0.006381  0  -0.042689  -0.032814  0  4.297265  0
C  C114  1  0.03123095  0.98175009  0.84004153  1  -0.003326  0  -0.041099  -0.03947  0  4.179013  0
C  C115  1  0.05885333  0.99951925  0.18559045  1  -0.373524  0  -0.041464  -0.036755  0  4.194146  0
C  C116  1  0.04201683  0.98182492  0.90691629  1  -0.286306  0  -0.060149  -0.085838  0  4.366689  0
C  C117  1  0.05761080  0.99102167  0.11829547  1  0.096844  0  -0.065481  -0.098  0  4.370803  0
C  C118  1  0.04999217  0.98248778  0.97895599  1  -0.063704  0  -0.044294  -0.036239  0  4.295213  0
C  C119  1  0.71982636  0.97569865  0.52966137  1  0.19002  0  -0.055918  -0.24103  0  4.253012  0
C  C120  1  0.05488634  0.98593332  0.04612611  1  -0.011955  0  -0.042322  -0.029265  0  4.30193  0
C  C121  1  0.90900516  0.72424261  0.49538180  1  1.093986  0  0.199765  0.334951  0  4.113921  0
C  C122  1  0.01860443  0.19839624  0.47227448  1  1.114626  0  0.198321  0.335304  0  4.085856  0
C  C123  1  0.21896829  0.27216877  0.63898345  1  1.103453  0  0.183617  0.304247  0  4.151993  0
C  C124  1  0.76764380  0.84236684  0.33506148  1  1.053926  0  0.198849  0.339339  0  4.088261  0
C  C125  1  0.03013975  0.78590208  0.49911275  1  1.074378  0  0.195311  0.390445  0  4.103335  0
C  C126  1  0.00646330  0.24039456  0.58874067  1  1.123342  0  0.200469  0.395379  0  4.125194  0
C  C127  1  0.18718837  0.27013335  0.74090486  1  1.107746  0  0.176355  0.36533  0  4.158809  0
C  C128  1  0.81587671  0.77340648  0.26329300  1  1.100601  0  0.19739  0.395946  0  4.133009  0
C  C129  1  0.22895451  0.04727793  0.54866600  1  1.107088  0  0.198173  0.328921  0  4.10284  0
C  C130  1  0.98192220  0.71782588  0.50782263  1  0.181323  0  -0.054671  -0.225071  0  4.249947  0
C  C131  1  0.73753163  0.90906473  0.52908856  1  1.116788  0  0.203832  0.336151  0  4.11472  0
C  C132  1  0.97613164  0.91666553  0.68365737  1  1.144557  0  0.197113  0.331354  0  4.095667  0
C  C133  1  0.10070587  0.06839215  0.34079380  1  1.139779  0  0.200619  0.329978  0  4.109282  0
C  C134  1  0.01604790  0.98364029  0.76530217  1  0.189244  0  -0.056196  -0.231765  0  4.267193  0
C  C135  1  0.05402672  0.00414938  0.25771420  1  0.13127  0  -0.060133  -0.239949  0  4.260247  0
C  C136  1  0.40990390  0.48303483  0.06189710  1  0.392916  0  -0.070233  0.032782  0  3.884926  0
C  C137  1  0.42775718  0.45750682  0.12954870  1  0.012272  0  -0.166221  -0.127283  0  3.992132  0
C  C138  1  0.35637264  0.37609507  0.10813652  1  -0.067682  0  -0.242476  -0.354706  0  3.989874  0
C  C139  1  0.54240136  0.72601000  0.86037480  1  0.352319  0  -0.068969  0.032758  0  3.889402  0
C  C140  1  0.52473185  0.75044604  0.79183137  1  0.000491  0  -0.167537  -0.129447  0  3.999823  0
C  C141  1  0.02328067  0.26933075  0.53301357  1  0.147056  0  -0.05629  -0.236723  0  4.244791  0
C  C142  1  0.60271743  0.81480964  0.79962223  1  -0.070957  0  -0.240799  -0.352071  0  3.977428  0
C  C143  1  0.77791651  0.60667073  0.42169334  1  0.412162  0  -0.060583  0.040653  0  3.868818  0
C  C144  1  0.73162808  0.63340352  0.36597062  1  -0.018418  0  -0.174896  -0.145047  0  3.980431  0
C  C145  1  0.66242377  0.55840701  0.28518333  1  -0.044055  0  -0.24343  -0.351613  0  3.977436  0
C  C146  1  0.07728364  0.26288330  0.40082997  1  0.362262  0  -0.064171  0.036401  0  3.843987  0
C  C147  1  0.02513497  0.28944270  0.35065360  1  -0.03223  0  -0.171099  -0.140621  0  3.982536  0
C  C148  1  0.07963226  0.36665257  0.34810267  1  -0.095242  0  -0.242457  -0.349353  0  3.983841  0
C  C149  1  0.33212805  0.33971306  0.61690735  1  0.375429  0  -0.061396  0.050519  0  3.865064  0
C  C150  1  0.35162775  0.42485116  0.62066108  1  -0.01305  0  -0.171142  -0.143975  0  3.983653  0
C  C151  1  0.44385142  0.48069332  0.65993730  1  -0.051011  0  -0.242414  -0.344288  0  3.980415  0
C  C152  1  0.23746840  0.32579294  0.72027697  1  0.056658  0  -0.074017  -0.254574  0  4.29056  0
C  C153  1  0.63580855  0.82630942  0.31932925  1  0.387171  0  -0.063568  0.040676  0  3.841836  0
C  C154  1  0.59702324  0.86054257  0.26742640  1  -0.030545  0  -0.170694  -0.137658  0  3.972365  0
C  C155  1  0.50419145  0.80655668  0.22365170  1  -0.038206  0  -0.2446  -0.347235  0  3.966319  0
C  C156  1  0.33908388  0.13073457  0.68306099  1  0.366945  0  -0.060191  0.044798  0  3.862788  0
C  C157  1  0.29947686  0.10006942  0.73257884  1  -0.015601  0  -0.170011  -0.140624  0  3.971793  0
C  C158  1  0.36275015  0.10918869  0.80910009  1  -0.05967  0  -0.241468  -0.349219  0  3.992292  0
C  C159  1  0.60954092  0.81005601  0.50820076  1  0.343466  0  -0.061298  0.034539  0  3.869487  0
C  C160  1  0.61130861  0.84853210  0.59219569  1  -0.026032  0  -0.170255  -0.142553  0  3.981032  0
C  C161  1  0.52538259  0.83034077  0.58310206  1  -0.076131  0  -0.241435  -0.349502  0  3.96775  0
C  C162  1  0.87737257  0.79982927  0.67911324  1  0.401666  0  -0.063719  0.042697  0  3.858257  0
C  C163  1  0.74653754  0.78560166  0.25368272  1  0.204298  0  -0.059359  -0.231199  0  4.242374  0
C  C164  1  0.88409953  0.73631998  0.70763855  1  -0.014089  0  -0.167475  -0.131749  0  3.976875  0
C  C165  1  0.80955448  0.69457977  0.72016894  1  -0.085455  0  -0.242008  -0.3498  0  3.9881  0
C  C166  1  0.23006730  0.15393587  0.35340017  1  0.353352  0  -0.061325  0.035384  0  3.87011  0
C  C167  1  0.28355534  0.12461669  0.39788075  1  0.00809  0  -0.172498  -0.140818  0  3.986878  0
C  C168  1  0.36028233  0.14298436  0.38449356  1  -0.078386  0  -0.242574  -0.350031  0  3.979303  0
C  C169  1  0.47385128  0.58151921  0.02350807  1  0.576364  0  0.078385  0.094341  0  3.769255  0
N  N170  1  0.00628062  0.03197709  0.67167291  1  -0.838092  0  -0.301747  -0.294153  0  3.589224  0
N  N171  1  0.99207360  0.16172729  0.56286743  1  -0.85403  0  -0.310266  -0.290752  0  3.638881  0
N  N172  1  0.14318867  0.19252941  0.67982019  1  -0.782739  0  -0.275131  -0.345112  0  3.253728  0
N  N173  1  0.87287171  0.81906216  0.34116520  1  -0.846281  0  -0.305552  -0.308184  0  3.558489  0
N  N174  1  0.14754342  0.01604444  0.51872169  1  -0.782752  0  -0.275078  -0.315105  0  3.382414  0
N  N175  1  0.81541053  0.93177833  0.54474546  1  -0.816301  0  -0.296617  -0.300315  0  3.534369  0
N  N176  1  0.97033354  0.94549173  0.62822650  1  -0.793394  0  -0.275547  -0.293197  0  3.457164  0
N  N177  1  0.07000190  0.04497872  0.38806824  1  -0.83311  0  -0.293693  -0.276971  0  3.631242  0
N  N178  1  0.00275156  0.96583636  0.34087650  1  -0.787497  0  -0.276564  -0.321103  0  3.356031  0
N  N179  1  0.11313400  0.93934383  0.44934334  1  -0.82745  0  -0.292992  -0.278235  0  3.571602  0
N  N180  1  0.85247706  0.01364306  0.55615574  1  -0.841591  0  -0.289931  -0.322317  0  3.46423  0
N  N181  1  0.91456438  0.78857509  0.48028787  1  -0.811113  0  -0.291592  -0.29399  0  3.598505  0
N  N182  1  0.00177023  0.13438066  0.49091438  1  -0.767794  0  -0.287515  -0.33805  0  3.330175  0
N  N183  1  0.16434560  0.19488903  0.61671686  1  -0.832539  0  -0.301052  -0.286558  0  3.671771  0
N  N184  1  0.84288687  0.86229105  0.38784609  1  -0.811261  0  -0.295001  -0.342557  0  3.450771  0
N  N185  1  0.99006013  0.82739711  0.48142015  1  -0.817807  0  -0.285409  -0.332887  0  3.41444  0
O  O186  1  0.06522833  0.13536349  0.80714844  1  -1.148786  0  -0.328379  -0.428086  0  2.290865  0
O  O187  1  0.02880912  0.18832407  0.40399117  1  -1.068564  0  -0.169515  -0.195577  0  2.524374  0
O  O188  1  0.24507945  0.28690663  0.58432137  1  -1.076343  0  -0.187312  -0.232505  0  2.530027  0
O  O189  1  0.72439049  0.87535667  0.36357380  1  -1.091533  0  -0.172434  -0.205748  0  2.548358  0
O  O190  1  0.10633472  0.80824170  0.50547587  1  -1.121177  0  -0.333985  -0.435328  0  2.292096  0
O  O191  1  0.00276468  0.28128375  0.65839955  1  -1.147856  0  -0.336377  -0.443086  0  2.252884  0
O  O192  1  0.18258348  0.29082981  0.81379848  1  -1.115954  0  -0.353893  -0.451895  0  2.271448  0
O  O193  1  0.82703743  0.72218372  0.20555013  1  -1.14411  0  -0.342135  -0.442817  0  2.264461  0
O  O194  1  0.27961170  0.12483405  0.61156221  1  -1.086139  0  -0.185504  -0.231269  0  2.541511  0
O  O195  1  0.69014984  0.83039912  0.51227210  1  -1.087766  0  -0.179712  -0.22381  0  2.528117  0
O  O196  1  0.94585857  0.83448212  0.66132244  1  -1.071589  0  -0.182564  -0.225217  0  2.525914  0
O  O197  1  0.93315015  0.86719849  0.20153091  1  -1.140296  0  -0.337097  -0.44212  0  2.296939  0
O  O198  1  0.16259820  0.14620214  0.37445163  1  -1.087302  0  -0.179017  -0.228275  0  2.559101  0
O  O199  1  0.34405607  0.60571000  0.99830580  1  -1.148551  0  -0.37889  -0.464635  0  2.248235  0
O  O200  1  0.60460494  0.61274092  0.93321505  1  -1.12978  0  -0.376913  -0.468668  0  2.249793  0
O  O201  1  0.48020650  0.56007295  0.08600750  1  -1.072841  0  -0.204041  -0.222474  0  2.508938  0
O  O202  1  0.46594866  0.66285477  0.84698303  1  -1.063796  0  -0.209083  -0.233159  0  2.502589  0
O  O203  1  0.48054368  0.76359873  0.02163122  1  -1.132923  0  -0.371983  -0.466165  0  2.245364  0
O  O204  1  0.46315952  0.45457572  0.90037983  1  -1.160481  0  -0.385232  -0.470479  0  2.251905  0
O  O205  1  0.15409675  0.85473628  0.37322631  1  -1.142701  0  -0.340601  -0.447346  0  2.247109  0
O  O206  1  0.81416098  0.11635940  0.55576218  1  -1.123925  0  -0.330654  -0.430318  0  2.269209  0
O  O207  1  0.84260290  0.67721473  0.50036770  1  -1.078298  0  -0.190233  -0.246458  0  2.518787  0
