# generated using pymatgen
data_Zn2H22C17N12
_symmetry_space_group_name_H-M   'P 1'
_cell_length_a   10.79271077
_cell_length_b   12.23962885
_cell_length_c   16.86133894
_cell_angle_alpha   89.99985301
_cell_angle_beta   95.23818120
_cell_angle_gamma   89.99999738
_symmetry_Int_Tables_number   1
_chemical_formula_structural   Zn2H22C17N12
_chemical_formula_sum   'Zn8 H88 C68 N48'
_cell_volume   2218.06025184
_cell_formula_units_Z   4
loop_
 _symmetry_equiv_pos_site_id
 _symmetry_equiv_pos_as_xyz
  1  'x, y, z'
loop_
 _atom_site_type_symbol
 _atom_site_label
 _atom_site_symmetry_multiplicity
 _atom_site_fract_x
 _atom_site_fract_y
 _atom_site_fract_z
 _atom_site_occupancy
 _atom_site_pbe_bader_charge
 _atom_site_pbe_bader_spin_density
 _atom_site_pbe_cm5_charge
 _atom_site_pbe_ddec_charge
 _atom_site_pbe_ddec_spin_density
 _atom_site_pbe_ddec_sum_bond_order
 _atom_site_pbe_magmom
Zn  Zn0  1  0.72666201  0.73670918  0.59885289  1  1.19087  0  0.738088  0.663375  0  2.530209  0
Zn  Zn1  1  0.77334086  0.23670900  0.90114794  1  1.190839  0  0.738096  0.6634  0  2.530145  0
Zn  Zn2  1  0.27333922  0.26329077  0.40114809  1  1.190894  0  0.738099  0.663364  0  2.530241  0
Zn  Zn3  1  0.22665945  0.76329012  0.09885180  1  1.190828  0  0.73811  0.663411  0  2.530221  0
Zn  Zn4  1  0.20855169  0.74749407  0.46030146  1  1.19091  0  0.745183  0.666849  0  2.531848  0
Zn  Zn5  1  0.29144885  0.24749354  0.03969975  1  1.19093  0  0.74517  0.666852  0  2.531931  0
Zn  Zn6  1  0.79144862  0.25250587  0.53969827  1  1.190918  0  0.745182  0.666893  0  2.531792  0
Zn  Zn7  1  0.70855053  0.75250640  0.96030112  1  1.19092  0  0.745171  0.666879  0  2.531895  0
H  H8  1  0.00058244  0.68198177  0.29059072  1  0.081988  0  0.101468  0.14891  0  0.994499  0
H  H9  1  0.49941625  0.18198308  0.20940990  1  0.08201  0  0.101465  0.148921  0  0.994473  0
H  H10  1  0.99941693  0.31801654  0.70940955  1  0.082001  0  0.101466  0.148926  0  0.994457  0
H  H11  1  0.50058312  0.81801768  0.79059037  1  0.08202  0  0.101477  0.148932  0  0.994441  0
H  H12  1  0.11865610  0.58050645  0.30072152  1  0.128743  0  0.101315  0.15376  0  1.009095  0
H  H13  1  0.38134170  0.08050780  0.19927925  1  0.128759  0  0.101319  0.153768  0  1.009137  0
H  H14  1  0.88134235  0.41949186  0.69927870  1  0.128763  0  0.10131  0.153764  0  1.009127  0
H  H15  1  0.61865861  0.91949214  0.80072049  1  0.128766  0  0.101324  0.153777  0  1.009124  0
H  H16  1  0.06768814  0.63275575  0.20530090  1  0.060923  0  0.100812  0.143752  0  1.033751  0
H  H17  1  0.43231058  0.13275513  0.29469982  1  0.060905  0  0.100817  0.143769  0  1.033751  0
H  H18  1  0.93231031  0.36724337  0.79469932  1  0.060927  0  0.100822  0.143789  0  1.033713  0
H  H19  1  0.56768973  0.86724318  0.70529991  1  0.060908  0  0.100807  0.143753  0  1.033742  0
H  H20  1  0.47967489  0.95796060  0.35371756  1  0.110717  0  0.116444  0.145835  0  0.979605  0
H  H21  1  0.02032558  0.45796134  0.14628029  1  0.110747  0  0.116402  0.145775  0  0.979592  0
H  H22  1  0.52032728  0.04203852  0.64627991  1  0.110767  0  0.116414  0.145804  0  0.979597  0
H  H23  1  0.97967380  0.54203860  0.85371998  1  0.110744  0  0.116409  0.145804  0  0.979578  0
H  H24  1  0.34744581  0.99775421  0.40187623  1  0.086554  0  0.109325  0.130271  0  0.9909  0
H  H25  1  0.15255557  0.49775593  0.09812397  1  0.086508  0  0.109368  0.130265  0  0.990935  0
H  H26  1  0.65255636  0.00224246  0.59812242  1  0.086478  0  0.109382  0.1303  0  0.990926  0
H  H27  1  0.84744380  0.50224401  0.90187689  1  0.086498  0  0.109378  0.130298  0  0.990933  0
H  H28  1  0.48736701  0.67274552  0.66876502  1  0.036811  0  0.096415  0.137021  0  1.030779  0
H  H29  1  0.01263365  0.17274723  0.83123663  1  0.036854  0  0.096434  0.137028  0  1.030828  0
H  H30  1  0.51263051  0.32725198  0.33123336  1  0.036769  0  0.096415  0.137075  0  1.030761  0
H  H31  1  0.98736480  0.82725353  0.16876536  1  0.03683  0  0.0964  0.136983  0  1.030818  0
H  H32  1  0.35579039  0.62908744  0.60497520  1  0.089683  0  0.09992  0.147929  0  1.016966  0
H  H33  1  0.14421214  0.12908485  0.89502308  1  0.089612  0  0.099885  0.147885  0  1.016994  0
H  H34  1  0.64420620  0.37091168  0.39502253  1  0.089719  0  0.099922  0.147975  0  1.01689  0
H  H35  1  0.85578910  0.87091265  0.10497611  1  0.089683  0  0.099911  0.147907  0  1.016965  0
H  H36  1  0.34493323  0.74727720  0.66354825  1  0.076363  0  0.104398  0.155564  0  0.99527  0
H  H37  1  0.15507112  0.24727562  0.83644933  1  0.076128  0  0.104394  0.155566  0  0.995228  0
H  H38  1  0.65506615  0.25272274  0.33644787  1  0.07624  0  0.104353  0.155524  0  0.995339  0
H  H39  1  0.84493012  0.75272350  0.16355046  1  0.076286  0  0.104357  0.155505  0  0.995315  0
H  H40  1  0.88788034  0.90622801  0.70922352  1  0.038619  0  0.09309  0.133611  0  1.022927  0
H  H41  1  0.61211876  0.40622741  0.79077499  1  0.038605  0  0.09309  0.133613  0  1.02292  0
H  H42  1  0.11211904  0.09377357  0.29077616  1  0.038613  0  0.09308  0.133616  0  1.022915  0
H  H43  1  0.38787875  0.59377416  0.20922398  1  0.038624  0  0.093072  0.133596  0  1.022909  0
H  H44  1  0.87849802  0.01890874  0.64239545  1  0.081429  0  0.093647  0.139059  0  1.022435  0
H  H45  1  0.62150213  0.51890800  0.85760443  1  0.081443  0  0.093645  0.139068  0  1.02244  0
H  H46  1  0.12150228  0.98109039  0.35760309  1  0.08142  0  0.09363  0.139054  0  1.022442  0
H  H47  1  0.37849631  0.48109276  0.14239697  1  0.08144  0  0.093654  0.139074  0  1.02242  0
H  H48  1  0.02393940  0.98436440  0.69417696  1  0.094568  0  0.100719  0.149415  0  1.000436  0
H  H49  1  0.47605929  0.48436211  0.80582399  1  0.094576  0  0.100718  0.149459  0  1.000363  0
H  H50  1  0.97605998  0.01563717  0.30582331  1  0.094567  0  0.100718  0.149443  0  1.000399  0
H  H51  1  0.52393822  0.51563947  0.19417676  1  0.094598  0  0.100735  0.14944  0  1.000412  0
H  H52  1  0.82787212  0.70344298  0.40704698  1  0.073289  0  0.111723  0.134099  0  0.967339  0
H  H53  1  0.67212788  0.20344308  0.09295165  1  0.073249  0  0.111722  0.13408  0  0.967375  0
H  H54  1  0.17213098  0.29655533  0.59295291  1  0.073276  0  0.111716  0.134031  0  0.967368  0
H  H55  1  0.32787150  0.79655767  0.90704684  1  0.073251  0  0.111713  0.134079  0  0.967353  0
H  H56  1  0.97049143  0.63033861  0.42138546  1  0.07692  0  0.115111  0.133488  0  1.001397  0
H  H57  1  0.52950953  0.13033714  0.07861515  1  0.076918  0  0.11511  0.133503  0  1.001395  0
H  H58  1  0.02951167  0.36965969  0.57861621  1  0.076971  0  0.115118  0.133499  0  1.001369  0
H  H59  1  0.47048985  0.86966280  0.92138394  1  0.076924  0  0.115131  0.133528  0  1.001328  0
H  H60  1  0.63827873  0.50389806  0.67810530  1  0.062057  0  0.099224  0.144804  0  1.022206  0
H  H61  1  0.86172050  0.00389816  0.82189455  1  0.062079  0  0.099223  0.144791  0  1.022215  0
H  H62  1  0.36171878  0.49610270  0.32189367  1  0.062059  0  0.099221  0.144808  0  1.02219  0
H  H63  1  0.13827888  0.99610178  0.17810572  1  0.062069  0  0.099216  0.144793  0  1.022224  0
H  H64  1  0.61250261  0.37421529  0.63124619  1  0.088813  0  0.099428  0.144461  0  1.021633  0
H  H65  1  0.88749742  0.87421695  0.86875420  1  0.088827  0  0.099449  0.144474  0  1.021643  0
H  H66  1  0.38749584  0.62578466  0.36875224  1  0.088805  0  0.099432  0.144454  0  1.021627  0
H  H67  1  0.11250195  0.12578299  0.13124666  1  0.088819  0  0.099414  0.144443  0  1.021655  0
H  H68  1  0.52426553  0.48956444  0.59597148  1  0.051237  0  0.10124  0.153487  0  0.981444  0
H  H69  1  0.97573353  0.98956516  0.90402865  1  0.051233  0  0.101231  0.153473  0  0.981449  0
H  H70  1  0.47573292  0.51043632  0.40402636  1  0.051262  0  0.101239  0.153505  0  0.981453  0
H  H71  1  0.02426584  0.01043479  0.09597281  1  0.051238  0  0.101244  0.153497  0  0.981415  0
H  H72  1  0.60406977  0.79963416  0.21217153  1  0.038463  0  0.092202  0.133412  0  0.995398  0
H  H73  1  0.89593205  0.29962948  0.28783119  1  0.03839  0  0.092188  0.133391  0  0.995405  0
H  H74  1  0.39592774  0.20036987  0.78782804  1  0.038513  0  0.09218  0.133355  0  0.995477  0
H  H75  1  0.10407011  0.70037210  0.71217221  1  0.038536  0  0.092211  0.133442  0  0.99537  0
H  H76  1  0.58183766  0.76466641  0.31257400  1  0.057095  0  0.085979  0.120194  0  1.008223  0
H  H77  1  0.91816139  0.26466781  0.18742743  1  0.056947  0  0.085966  0.120173  0  1.008258  0
H  H78  1  0.41815892  0.23533516  0.68742373  1  0.057096  0  0.085977  0.120202  0  1.008239  0
H  H79  1  0.08183892  0.73533785  0.81257586  1  0.057054  0  0.085993  0.120225  0  1.008126  0
H  H80  1  0.72222674  0.72977490  0.27343779  1  0.00829  0  0.082423  0.103325  0  1.038373  0
H  H81  1  0.77777232  0.22977861  0.22656312  1  0.008297  0  0.082415  0.103286  0  1.038373  0
H  H82  1  0.27776985  0.27022586  0.72656054  1  0.008227  0  0.082417  0.103346  0  1.038404  0
H  H83  1  0.22222798  0.77022868  0.77343839  1  0.008227  0  0.082443  0.103356  0  1.038352  0
H  H84  1  0.74580207  0.90325794  0.36343609  1  0.094402  0  0.092443  0.076459  0  1.016135  0
H  H85  1  0.75420158  0.40326197  0.13656950  1  0.094526  0  0.092501  0.076535  0  1.016204  0
H  H86  1  0.25419730  0.09674037  0.63656418  1  0.094404  0  0.092444  0.076442  0  1.016096  0
H  H87  1  0.24580151  0.59674369  0.86343514  1  0.094418  0  0.092441  0.076428  0  1.016153  0
H  H88  1  0.66635716  0.99355183  0.19581888  1  0.080464  0  0.085705  0.131543  0  1.040881  0
H  H89  1  0.83364274  0.49355771  0.30418396  1  0.080353  0  0.085732  0.131573  0  1.0409  0
H  H90  1  0.33364221  0.00644975  0.80418258  1  0.080444  0  0.0857  0.131536  0  1.040848  0
H  H91  1  0.16635664  0.50645203  0.69581750  1  0.080295  0  0.085706  0.13153  0  1.040865  0
H  H92  1  0.74870732  0.06603008  0.28336635  1  0.056346  0  0.084762  0.120783  0  1.070582  0
H  H93  1  0.75129365  0.56603147  0.21663615  1  0.056325  0  0.084794  0.12089  0  1.070586  0
H  H94  1  0.25129298  0.93397068  0.71663575  1  0.056055  0  0.084748  0.120747  0  1.070615  0
H  H95  1  0.24870666  0.43397419  0.78336595  1  0.05609  0  0.084753  0.120759  0  1.070658  0
C  C96  1  0.08780457  0.65482902  0.26803971  1  -0.102749  0  -0.235289  -0.475165  0  3.934689  0
C  C97  1  0.41219414  0.15482944  0.23196097  1  -0.102735  0  -0.2353  -0.475213  0  3.934644  0
C  C98  1  0.91219388  0.34516929  0.73196050  1  -0.102769  0  -0.235292  -0.475228  0  3.934619  0
C  C99  1  0.58780617  0.84516968  0.76803876  1  -0.102731  0  -0.235294  -0.475215  0  3.934615  0
C  C100  1  0.18394637  0.74201384  0.27647457  1  0.967957  0  0.211454  0.375921  0  4.023223  0
C  C101  1  0.31605323  0.24201592  0.22352600  1  0.967903  0  0.211477  0.375931  0  4.023162  0
C  C102  1  0.81605300  0.25798529  0.72352511  1  0.96813  0  0.211461  0.375934  0  4.023224  0
C  C103  1  0.68394800  0.75798565  0.77647497  1  0.967897  0  0.211468  0.37597  0  4.023122  0
C  C104  1  0.32033051  0.85869049  0.32510138  1  0.948718  0  0.205489  0.318452  0  4.03268  0
C  C105  1  0.17966906  0.35869112  0.17489778  1  0.948676  0  0.205534  0.318525  0  4.032697  0
C  C106  1  0.67967073  0.14130618  0.67489840  1  0.948671  0  0.205507  0.318565  0  4.032713  0
C  C107  1  0.82033125  0.64130801  0.82510136  1  0.948645  0  0.205552  0.318665  0  4.032783  0
C  C108  1  0.40051541  0.92661483  0.38325645  1  0.001995  0  -0.139234  -0.325584  0  3.941049  0
C  C109  1  0.09948600  0.42661649  0.11674210  1  0.001843  0  -0.139263  -0.325552  0  3.940933  0
C  C110  1  0.59948769  0.07338266  0.61674107  1  0.00193  0  -0.139292  -0.325727  0  3.941134  0
C  C111  1  0.90051338  0.57338346  0.88325817  1  0.001936  0  -0.139292  -0.325703  0  3.941046  0
C  C112  1  0.44829596  0.86603361  0.45674796  1  0.985931  0  0.20838  0.334057  0  4.016297  0
C  C113  1  0.05170640  0.36603635  0.04324957  1  0.986137  0  0.208342  0.334061  0  4.016347  0
C  C114  1  0.55170621  0.13396388  0.54324951  1  0.986068  0  0.20836  0.334165  0  4.01634  0
C  C115  1  0.94829391  0.63396278  0.95675075  1  0.986072  0  0.208322  0.334067  0  4.016388  0
C  C116  1  0.44959041  0.76897738  0.56327491  1  0.979948  0  0.213815  0.381694  0  4.00602  0
C  C117  1  0.05041580  0.26897790  0.93672393  1  0.988229  0  0.213857  0.381851  0  4.005938  0
C  C118  1  0.55041176  0.23101930  0.43672256  1  0.98  0  0.213823  0.381763  0  4.005895  0
C  C119  1  0.94958637  0.73102040  0.06327710  1  0.98799  0  0.213835  0.381762  0  4.005922  0
C  C120  1  0.40809850  0.70066473  0.62879049  1  -0.0586  0  -0.232953  -0.471582  0  3.939147  0
C  C121  1  0.09190494  0.20066467  0.87120950  1  -0.066409  0  -0.232923  -0.471547  0  3.939076  0
C  C122  1  0.59189995  0.29933276  0.37120676  1  -0.058507  0  -0.232916  -0.471663  0  3.939157  0
C  C123  1  0.90809630  0.79933445  0.12879148  1  -0.066607  0  -0.232906  -0.47147  0  3.939098  0
C  C124  1  0.93736533  0.95045328  0.66509565  1  -0.10454  0  -0.234453  -0.452134  0  3.925105  0
C  C125  1  0.56263561  0.45045253  0.83490525  1  -0.104471  0  -0.234457  -0.452228  0  3.925159  0
C  C126  1  0.06263590  0.04954666  0.33490473  1  -0.104552  0  -0.234434  -0.452222  0  3.92516  0
C  C127  1  0.43736191  0.54954823  0.16509491  1  -0.104512  0  -0.234468  -0.452222  0  3.925158  0
C  C128  1  0.96579420  0.87642092  0.59942551  1  0.987094  0  0.208691  0.382199  0  4.021427  0
C  C129  1  0.53421142  0.37642239  0.90057165  1  0.986882  0  0.208668  0.38221  0  4.021058  0
C  C130  1  0.03421169  0.12357657  0.40057336  1  0.986982  0  0.208757  0.382407  0  4.021043  0
C  C131  1  0.46578703  0.62357755  0.09942797  1  0.986901  0  0.208746  0.382387  0  4.021098  0
C  C132  1  0.94631813  0.75313222  0.50816567  1  1.002119  0  0.217207  0.344084  0  3.994496  0
C  C133  1  0.55368288  0.25312846  0.99183324  1  1.00207  0  0.217223  0.344138  0  3.994503  0
C  C134  1  0.05368497  0.24686773  0.49183541  1  1.002084  0  0.217157  0.344021  0  3.994587  0
C  C135  1  0.44631650  0.74686985  0.00816526  1  1.002082  0  0.217266  0.344328  0  3.994422  0
C  C136  1  0.89510267  0.66578653  0.45231110  1  0.030649  0  -0.136499  -0.32911  0  3.968533  0
C  C137  1  0.60489735  0.16578434  0.04768938  1  0.030367  0  -0.136544  -0.329179  0  3.968593  0
C  C138  1  0.10490043  0.33421260  0.54768939  1  0.030588  0  -0.136518  -0.329035  0  3.968475  0
C  C139  1  0.39510017  0.83421478  0.95231018  1  0.030653  0  -0.13654  -0.329218  0  3.968602  0
C  C140  1  0.83242421  0.57453043  0.49210911  1  0.98693  0  0.208849  0.335794  0  4.014651  0
C  C141  1  0.66757677  0.07452920  0.00789160  1  0.987231  0  0.208951  0.335978  0  4.014665  0
C  C142  1  0.16757610  0.42546788  0.50788943  1  0.98692  0  0.208917  0.335853  0  4.014751  0
C  C143  1  0.33242354  0.92546993  0.99211051  1  0.986952  0  0.208946  0.335907  0  4.014644  0
C  C144  1  0.71253956  0.48848030  0.56564815  1  0.992741  0  0.210012  0.377053  0  4.022652  0
C  C145  1  0.78746044  0.98848092  0.93435144  1  0.992676  0  0.21002  0.377168  0  4.022615  0
C  C146  1  0.28745982  0.51152127  0.43435152  1  0.992756  0  0.210001  0.377058  0  4.022614  0
C  C147  1  0.21253800  0.01152065  0.06564878  1  0.992661  0  0.21009  0.377253  0  4.022449  0
C  C148  1  0.61685652  0.46236830  0.62080520  1  -0.088089  0  -0.232968  -0.464739  0  3.93459  0
C  C149  1  0.88314349  0.96236830  0.87919444  1  -0.08812  0  -0.232953  -0.46471  0  3.934636  0
C  C150  1  0.38314286  0.53763246  0.37919329  1  -0.088114  0  -0.232954  -0.464751  0  3.934573  0
C  C151  1  0.11685682  0.03763083  0.12080589  1  -0.088125  0  -0.232924  -0.464733  0  3.934635  0
C  C152  1  0.65025913  0.79379237  0.27279629  1  -0.067925  0  -0.243216  -0.369728  0  4.000252  0
C  C153  1  0.84974177  0.29379362  0.22720638  1  -0.067739  0  -0.243165  -0.369574  0  4.000313  0
C  C154  1  0.34973745  0.20620921  0.72720323  1  -0.067993  0  -0.243212  -0.369738  0  4.000397  0
C  C155  1  0.15026040  0.70621204  0.77279701  1  -0.06799  0  -0.243255  -0.369862  0  4.000225  0
C  C156  1  0.70533020  0.90044179  0.30147373  1  -0.091956  0  -0.097339  0.042558  0  4.034845  0
C  C157  1  0.79467346  0.40044070  0.19852772  1  -0.091843  0  -0.097466  0.042363  0  4.034678  0
C  C158  1  0.29466732  0.09955815  0.69852703  1  -0.091898  0  -0.097312  0.042649  0  4.034743  0
C  C159  1  0.20533057  0.59956333  0.80147341  1  -0.092007  0  -0.097281  0.042724  0  4.03463  0
C  C160  1  0.70659742  0.99152796  0.25770771  1  -0.168338  0  -0.200275  -0.356406  0  3.878322  0
C  C161  1  0.79340341  0.49153897  0.24229933  1  -0.168437  0  -0.200273  -0.356493  0  3.877971  0
C  C162  1  0.29340102  0.00847361  0.74229310  1  -0.16801  0  -0.200259  -0.356381  0  3.878292  0
C  C163  1  0.20659969  0.50847486  0.75770590  1  -0.167798  0  -0.200329  -0.356471  0  3.878219  0
N  N164  1  0.88330726  0.80140074  0.56448182  1  -1.239199  0  -0.366381  -0.423983  0  3.444335  0
N  N165  1  0.61669466  0.30139800  0.93551942  1  -1.239183  0  -0.366364  -0.423978  0  3.444357  0
N  N166  1  0.11669490  0.19859839  0.43552040  1  -1.23921  0  -0.366335  -0.423997  0  3.444444  0
N  N167  1  0.38330472  0.69860113  0.06447966  1  -1.239205  0  -0.366409  -0.424123  0  3.444322  0
N  N168  1  0.07335968  0.87564074  0.56713741  1  -0.706656  0  -0.252435  -0.295008  0  3.124705  0
N  N169  1  0.42663719  0.37563718  0.93286068  1  -0.706672  0  -0.252368  -0.294929  0  3.124422  0
N  N170  1  0.92663970  0.12436002  0.43286346  1  -0.706697  0  -0.252463  -0.295063  0  3.124482  0
N  N171  1  0.57336032  0.62436194  0.06713829  1  -0.706509  0  -0.252433  -0.295039  0  3.124605  0
N  N172  1  0.06002659  0.79668012  0.50868621  1  -0.830298  0  -0.275882  -0.253077  0  3.596006  0
N  N173  1  0.43997217  0.29667554  0.99131094  1  -0.830067  0  -0.275908  -0.253131  0  3.59612  0
N  N174  1  0.93997372  0.20332064  0.49131292  1  -0.830046  0  -0.275867  -0.253084  0  3.596075  0
N  N175  1  0.56002628  0.70332277  0.00868808  1  -0.830219  0  -0.27594  -0.253243  0  3.596254  0
N  N176  1  0.74580900  0.59062314  0.54540696  1  -1.253017  0  -0.37024  -0.431146  0  3.445821  0
N  N177  1  0.75419206  0.09062278  0.95459462  1  -1.253011  0  -0.370249  -0.431263  0  3.445848  0
N  N178  1  0.25419317  0.40937762  0.45459347  1  -1.253033  0  -0.370247  -0.431131  0  3.445789  0
N  N179  1  0.24580731  0.90937716  0.04540743  1  -1.253038  0  -0.370282  -0.431222  0  3.445662  0
N  N180  1  0.85304698  0.46956648  0.47904934  1  -0.692218  0  -0.249476  -0.287706  0  3.182293  0
N  N181  1  0.64695200  0.96956693  0.02094933  1  -0.692273  0  -0.249545  -0.287768  0  3.18239  0
N  N182  1  0.14695333  0.53043101  0.52094979  1  -0.692201  0  -0.249571  -0.28779  0  3.182299  0
N  N183  1  0.35304458  0.03043301  0.97904959  1  -0.692186  0  -0.249528  -0.287743  0  3.182273  0
N  N184  1  0.77646483  0.41482536  0.52677832  1  -0.836247  0  -0.274316  -0.277507  0  3.565778  0
N  N185  1  0.72353333  0.91482584  0.97322071  1  -0.836188  0  -0.274336  -0.27762  0  3.565899  0
N  N186  1  0.22353361  0.58517540  0.47322130  1  -0.83627  0  -0.274274  -0.277498  0  3.565788  0
N  N187  1  0.27646326  0.08517492  0.02677880  1  -0.836223  0  -0.274403  -0.277674  0  3.565896  0
N  N188  1  0.56670573  0.80046201  0.55439929  1  -0.83718  0  -0.27977  -0.283715  0  3.588194  0
N  N189  1  0.93329992  0.30046249  0.94559861  1  -0.835339  0  -0.279765  -0.283822  0  3.588331  0
N  N190  1  0.43329551  0.19953467  0.44559931  1  -0.83716  0  -0.279749  -0.283715  0  3.588119  0
N  N191  1  0.06670225  0.69953500  0.05440183  1  -0.835117  0  -0.279767  -0.28381  0  3.588228  0
N  N192  1  0.56661053  0.86242479  0.48586347  1  -0.709698  0  -0.249104  -0.285413  0  3.154948  0
N  N193  1  0.93339408  0.36242598  0.01413336  1  -0.711618  0  -0.249089  -0.28533  0  3.155007  0
N  N194  1  0.43339350  0.13757352  0.51413470  1  -0.70973  0  -0.249108  -0.285423  0  3.155017  0
N  N195  1  0.06660716  0.63757314  0.98586642  1  -0.711669  0  -0.249075  -0.285336  0  3.154931  0
N  N196  1  0.37225534  0.80925485  0.50278120  1  -1.254613  0  -0.371372  -0.418771  0  3.457629  0
N  N197  1  0.12774806  0.30925679  0.99721799  1  -1.254738  0  -0.371397  -0.418897  0  3.457958  0
N  N198  1  0.62774683  0.19074182  0.49721567  1  -1.254674  0  -0.371381  -0.418853  0  3.457831  0
N  N199  1  0.87225224  0.69074315  0.00278293  1  -1.254696  0  -0.371353  -0.41878  0  3.457814  0
N  N200  1  0.23175226  0.78634267  0.34631296  1  -1.276819  0  -0.371635  -0.445518  0  3.488766  0
N  N201  1  0.26824826  0.28634337  0.15368758  1  -1.276816  0  -0.37163  -0.445514  0  3.48878  0
N  N202  1  0.76824991  0.21365564  0.65368688  1  -1.277013  0  -0.371642  -0.445609  0  3.488813  0
N  N203  1  0.73175204  0.71365575  0.84631393  1  -1.276803  0  -0.371627  -0.445604  0  3.48879  0
N  N204  1  0.32679831  0.86141784  0.24692375  1  -0.687859  0  -0.246992  -0.28075  0  3.16162  0
N  N205  1  0.17319940  0.36141819  0.25307529  1  -0.687892  0  -0.247032  -0.28084  0  3.16151  0
N  N206  1  0.67320014  0.13858047  0.75307468  1  -0.687896  0  -0.247008  -0.280822  0  3.161441  0
N  N207  1  0.82680183  0.63858257  0.74692568  1  -0.687895  0  -0.247075  -0.280903  0  3.161759  0
N  N208  1  0.23937794  0.78673670  0.21621889  1  -0.833633  0  -0.275147  -0.2762  0  3.572897  0
N  N209  1  0.26062072  0.28673776  0.28378095  1  -0.833563  0  -0.275153  -0.276154  0  3.57273  0
N  N210  1  0.76061957  0.21326242  0.78378009  1  -0.833539  0  -0.275133  -0.276112  0  3.572685  0
N  N211  1  0.73938238  0.71326381  0.71621954  1  -0.833497  0  -0.275127  -0.276158  0  3.572683  0
