# generated using pymatgen
data_NiH14C21S2N4O5
_symmetry_space_group_name_H-M   'P 1'
_cell_length_a   9.05586314
_cell_length_b   9.47472484
_cell_length_c   13.36310197
_cell_angle_alpha   90.21775790
_cell_angle_beta   104.25568887
_cell_angle_gamma   107.04718797
_symmetry_Int_Tables_number   1
_chemical_formula_structural   NiH14C21S2N4O5
_chemical_formula_sum   'Ni2 H28 C42 S4 N8 O10'
_cell_volume   1058.86723869
_cell_formula_units_Z   2
loop_
 _symmetry_equiv_pos_site_id
 _symmetry_equiv_pos_as_xyz
  1  'x, y, z'
loop_
 _atom_site_type_symbol
 _atom_site_label
 _atom_site_symmetry_multiplicity
 _atom_site_fract_x
 _atom_site_fract_y
 _atom_site_fract_z
 _atom_site_occupancy
 _atom_site_hle17_ddec_charge
 _atom_site_hle17_ddec_spin_density
 _atom_site_hle17_ddec_sum_bond_order
 _atom_site_hle17_magmom
 _atom_site_hse06_10hf_ddec_charge
 _atom_site_hse06_10hf_ddec_spin_density
 _atom_site_hse06_10hf_ddec_sum_bond_order
 _atom_site_hse06_10hf_magmom
 _atom_site_hse06_ddec_charge
 _atom_site_hse06_ddec_spin_density
 _atom_site_hse06_ddec_sum_bond_order
 _atom_site_hse06_magmom
 _atom_site_pbe_cm5_charge
 _atom_site_pbe_ddec_charge
 _atom_site_pbe_ddec_spin_density
 _atom_site_pbe_ddec_sum_bond_order
 _atom_site_pbe_magmom
Ni  Ni0  1  0.50000052  0.50000082  0.00000015  1  0.608047  -1.706553  2.471794  -1.35  0.634775  -1.749447  2.864135  -1.48  0.732129  -1.863206  2.785592  -1.611  0.607097  0.573772  -1.627236  2.914834  -1.351
Ni  Ni1  1  0.00000036  0.00000111  0.00000006  1  0.605019  1.699522  2.465087  1.341  0.632217  1.745112  2.861741  1.474  0.733353  1.86185  2.780936  1.61  0.603562  0.569126  1.621249  2.913245  1.343
H  H2  1  0.26856527  0.27275450  0.68850193  1  0.091662  -5e-06  0.957514  0.0  0.09877  -6e-05  1.022793  0.0  0.102466  -3e-05  1.020917  0.0  0.097092  0.095983  -7.8e-05  1.024277  0.0
H  H3  1  0.73142971  0.72723923  0.31149791  1  0.091689  -7e-06  0.957464  0.0  0.0988  -6e-05  1.022751  0.0  0.102496  -3e-05  1.020873  0.0  0.097103  0.096011  -7.8e-05  1.024231  0.0
H  H4  1  0.34453223  0.08980097  0.80733223  1  0.102315  0.000107  0.932401  0.0  0.113736  0.000148  0.988587  0.0  0.116276  0.000115  0.9884  0.0  0.105056  0.111713  0.000176  0.98905  0.0
H  H5  1  0.65547101  0.91019717  0.19266817  1  0.102338  0.000108  0.932353  0.0  0.113755  0.000148  0.988543  0.0  0.116296  0.000115  0.988354  0.0  0.105077  0.111731  0.000176  0.989002  0.0
H  H6  1  0.46922366  0.91160332  0.74980388  1  0.100619  0.000282  0.965388  0.0  0.107122  0.000321  1.032504  0.0  0.111382  0.00024  1.029087  0.0  0.100199  0.103903  0.000378  1.035262  0.0
H  H7  1  0.53078139  0.08839701  0.25019456  1  0.10063  0.00028  0.96533  0.0  0.107161  0.000321  1.032411  0.0  0.111428  0.00024  1.028999  0.0  0.100203  0.10394  0.000378  1.035164  0.0
H  H8  1  0.32337861  0.28182076  0.51373948  1  0.106461  3e-06  0.938707  0.0  0.114507  -1.1e-05  1.001804  0.0  0.118512  -7e-06  0.99874  0.0  0.107511  0.111436  -1.3e-05  1.004529  0.0
H  H9  1  0.67661442  0.71817741  0.48626082  1  0.106467  -1e-06  0.938738  0.0  0.114513  -1.1e-05  1.001821  0.0  0.118518  -7e-06  0.998756  0.0  0.107497  0.111441  -1.3e-05  1.004546  0.0
H  H10  1  0.53066350  0.62624516  0.79306585  1  0.096442  -0.000824  0.932235  -0.001  0.103611  -0.000665  0.993081  -0.001  0.106272  -0.000479  0.990128  -0.001  0.120167  0.101581  -0.000836  0.99565  -0.001
H  H11  1  0.46933746  0.37375632  0.20693569  1  0.096448  -0.000828  0.932228  -0.001  0.103594  -0.000665  0.993095  -0.001  0.106255  -0.000479  0.990144  -0.001  0.120158  0.10156  -0.000836  0.995658  -0.001
H  H12  1  0.63762729  0.57667077  0.64726062  1  0.127461  -0.000257  0.955307  0.0  0.131666  -0.000359  1.021861  0.0  0.136039  -0.000256  1.018553  0.0  0.113643  0.128318  -0.000454  1.024691  -0.001
H  H13  1  0.36237173  0.42333182  0.35273988  1  0.127455  -0.000254  0.95535  0.0  0.131703  -0.000359  1.02186  0.0  0.136047  -0.000256  1.018584  0.0  0.113635  0.128357  -0.000454  1.024688  -0.001
H  H14  1  0.81241082  0.25106741  0.82482826  1  0.116186  -0.000388  0.970946  0.0  0.123879  -0.000457  1.035194  0.0  0.127116  -0.000347  1.033322  0.0  0.106906  0.121406  -0.000566  1.036889  -0.001
H  H15  1  0.18758742  0.74893294  0.17516986  1  0.116221  -0.000388  0.970918  0.0  0.12391  -0.000457  1.035167  0.0  0.127146  -0.000347  1.033296  0.0  0.106914  0.121435  -0.000566  1.03686  -0.001
H  H16  1  0.69426012  0.31298114  0.96353429  1  0.082287  -0.00065  0.969789  -0.001  0.084939  -0.000588  1.043227  -0.001  0.087622  -0.000444  1.04062  -0.001  0.110305  0.082993  -0.00068  1.04535  -0.001
H  H17  1  0.30573971  0.68701701  0.03646557  1  0.082264  -0.000653  0.96984  -0.001  0.084932  -0.000587  1.043255  -0.001  0.087619  -0.000444  1.040636  -0.001  0.110305  0.082983  -0.00068  1.045381  -0.001
H  H18  1  0.10352861  0.95247466  0.22990868  1  0.086477  0.000734  0.951925  0.001  0.090524  0.000611  1.02156  0.001  0.093037  0.000439  1.018799  0.001  0.115264  0.088563  0.000774  1.024078  0.001
H  H19  1  0.89647607  0.04752790  0.77009121  1  0.086473  0.000741  0.951991  0.001  0.090518  0.000611  1.021619  0.001  0.093031  0.000439  1.018857  0.001  0.11529  0.088558  0.000774  1.02414  0.001
H  H20  1  0.06125349  0.04064394  0.39497237  1  0.122559  0.000291  0.941774  0.0  0.129547  0.000395  1.005355  0.0  0.133165  0.000279  1.003616  0.0  0.114142  0.127022  0.000481  1.006674  0.001
H  H21  1  0.93874672  0.95935532  0.60502831  1  0.122552  0.000285  0.941778  0.0  0.129549  0.000395  1.005346  0.0  0.133167  0.000279  1.003607  0.0  0.114143  0.127024  0.000481  1.006663  0.001
H  H22  1  0.89031832  0.37350687  0.22524120  1  0.105995  -0.000243  0.998771  0.0  0.111378  -8.5e-05  1.069817  0.0  0.115106  -1.7e-05  1.068261  0.0  0.095984  0.108807  -0.000164  1.070803  0.0
H  H23  1  0.10968075  0.62649239  0.77475930  1  0.106004  -0.000244  0.99875  0.0  0.111383  -8.5e-05  1.069802  0.0  0.115112  -1.7e-05  1.068245  0.0  0.095993  0.108815  -0.000164  1.070785  0.0
H  H24  1  0.93932542  0.27177187  0.06853759  1  0.085161  0.000847  0.950748  0.001  0.093079  0.000751  1.013318  0.001  0.095265  0.00054  1.011011  0.001  0.114672  0.091421  0.000908  1.01521  0.001
H  H25  1  0.06067513  0.72822849  0.93146239  1  0.085147  0.000845  0.950754  0.001  0.093065  0.000751  1.013321  0.001  0.09525  0.00054  1.011016  0.001  0.114671  0.091412  0.000908  1.015209  0.001
H  H26  1  0.90293424  0.24628616  0.58793505  1  0.394772  -1e-05  0.90067  0.0  0.363193  -1.6e-05  0.978872  0.0  0.376596  -1.1e-05  0.963723  0.0  0.30348  0.353796  -1.8e-05  0.988662  0.0
H  H27  1  0.09707273  0.75371974  0.41206745  1  0.394896  -9e-06  0.900455  0.0  0.363258  -1.6e-05  0.978769  0.0  0.376661  -1.1e-05  0.96363  0.0  0.303511  0.35386  -1.8e-05  0.988563  0.0
H  H28  1  0.82922846  0.39431771  0.46587637  1  0.399737  5e-06  0.895436  0.0  0.368667  3e-06  0.972171  0.0  0.382021  4e-06  0.955364  0.0  0.304874  0.359295  3e-06  0.982048  0.0
H  H29  1  0.17076610  0.60567823  0.53412341  1  0.399726  3e-06  0.895442  0.0  0.368657  3e-06  0.972173  0.0  0.382011  4e-06  0.955381  0.0  0.304877  0.359289  3e-06  0.982048  0.0
C  C30  1  0.32359826  0.19548236  0.66348259  1  -0.042246  0.000117  3.716548  0.0  -0.057001  8.1e-05  3.969357  0.0  -0.058997  7.2e-05  3.990333  0.0  -0.07747  -0.055244  0.000118  3.954502  0.0
C  C31  1  0.67639862  0.80451359  0.33651905  1  -0.042344  0.00012  3.716519  0.0  -0.057129  8e-05  3.969357  0.0  -0.059127  7.2e-05  3.990338  0.0  -0.077541  -0.055372  0.000118  3.954495  0.0
C  C32  1  0.36585285  0.09228297  0.73036844  1  -0.048473  0.000171  3.719141  0.0  -0.060935  0.000212  3.97003  0.0  -0.06319  0.000151  3.992606  0.0  -0.076396  -0.059283  0.00025  3.954674  0.0
C  C33  1  0.63414663  0.90771407  0.26963212  1  -0.04843  0.000172  3.718982  0.0  -0.06088  0.000211  3.969875  0.0  -0.063133  0.000151  3.992452  0.0  -0.076375  -0.059228  0.00025  3.954513  0.0
C  C34  1  0.43554719  0.99263259  0.69884119  1  -0.067397  0.000393  3.721016  0.0  -0.091776  0.000403  3.97338  0.0  -0.093039  0.000288  3.993588  0.0  -0.078833  -0.091015  0.000497  3.95994  0.0
C  C35  1  0.56445642  0.00736666  0.30115927  1  -0.067482  0.000392  3.720946  0.0  -0.091891  0.000403  3.973305  0.0  -0.093168  0.000288  3.993514  0.0  -0.078924  -0.09113  0.000497  3.959858  0.0
C  C36  1  0.46580109  0.99642768  0.60085375  1  -0.056557  6e-06  3.756691  0.0  -0.047087  5.9e-05  3.993213  0.0  -0.052722  1.5e-05  4.018114  0.0  -0.018741  -0.043136  0.000114  3.976064  0.0
C  C37  1  0.53419684  0.00357158  0.39914657  1  -0.056567  4e-06  3.75666  0.0  -0.047041  5.9e-05  3.993187  0.0  -0.052674  1.5e-05  4.018087  0.0  -0.018702  -0.043091  0.000114  3.976037  0.0
C  C38  1  0.42570284  0.10231012  0.53387807  1  -0.062884  0.000138  3.763699  0.0  -0.054208  0.00011  4.002591  0.0  -0.06019  8.1e-05  4.027767  0.0  -0.019167  -0.049849  0.000155  3.984951  0.0
C  C39  1  0.57429656  0.89769024  0.46612099  1  -0.062695  0.000135  3.76361  0.0  -0.054099  0.00011  4.002527  0.0  -0.060078  8.1e-05  4.027701  0.0  -0.019128  -0.049743  0.000155  3.984895  0.0
C  C40  1  0.54035139  0.88893644  0.56952134  1  0.376637  -1.1e-05  3.7587  0.0  0.357056  1e-05  4.021973  0.0  0.379101  -1e-06  4.024815  0.0  0.152602  0.342264  5.9e-05  4.019368  0.0
C  C41  1  0.45964577  0.11106059  0.43047735  1  0.376627  -1.4e-05  3.758783  0.0  0.356959  1e-05  4.022152  0.0  0.379003  -1e-06  4.024994  0.0  0.15257  0.342172  5.9e-05  4.019531  0.0
C  C42  1  0.35391545  0.20072316  0.56597859  1  -0.057498  -4.8e-05  3.693467  0.0  -0.082571  -2.3e-05  3.948647  0.0  -0.083472  -2.2e-05  3.968478  0.0  -0.073947  -0.081742  -3.3e-05  3.934831  0.0
C  C43  1  0.64608139  0.79927278  0.43402156  1  -0.057546  -3.8e-05  3.693573  0.0  -0.082579  -2.2e-05  3.948737  0.0  -0.083482  -2.1e-05  3.968568  0.0  -0.073904  -0.081747  -3.3e-05  3.93492  0.0
C  C44  1  0.61132708  0.83290976  0.96074195  1  0.290511  -0.011017  3.951729  -0.021  0.292264  -0.003896  4.263172  -0.014  0.324108  -0.003101  4.274943  -0.012  0.156697  0.269931  -0.003996  4.255529  -0.015
C  C45  1  0.38867829  0.16709501  0.03925656  1  0.290524  -0.011011  3.951899  -0.021  0.292276  -0.003893  4.263334  -0.014  0.324118  -0.003098  4.275102  -0.012  0.156687  0.26994  -0.003993  4.255693  -0.015
C  C46  1  0.86614444  0.70233270  0.09049723  1  0.292482  0.008254  3.944267  0.018  0.291454  0.002837  4.256388  0.012  0.322309  0.00215  4.268986  0.01  0.158919  0.270106  0.003041  4.247095  0.013
C  C47  1  0.13385616  0.29766767  0.90950425  1  0.292437  0.008245  3.94419  0.018  0.291405  0.002836  4.256318  0.012  0.32226  0.00215  4.268917  0.01  0.158879  0.27006  0.00304  4.247026  0.013
C  C48  1  0.59325992  0.54354236  0.79717625  1  0.132195  0.009996  3.642384  0.012  0.105911  0.00203  3.898289  0.003  0.113567  0.002598  3.916239  0.004  0.052065  0.100015  0.001716  3.886715  0.003
C  C49  1  0.40674024  0.45646023  0.20282442  1  0.132212  0.010003  3.642391  0.012  0.105943  0.002031  3.898299  0.003  0.1136  0.002597  3.916241  0.004  0.052095  0.100049  0.001715  3.886712  0.003
C  C50  1  0.65351208  0.51541176  0.71572411  1  -0.099738  -0.010221  3.67942  -0.012  -0.12544  -0.00324  3.930087  -0.004  -0.129546  -0.003239  3.949307  -0.004  -0.069131  -0.122375  -0.003303  3.91694  -0.004
C  C51  1  0.34648660  0.48458972  0.28427708  1  -0.099844  -0.010225  3.679482  -0.012  -0.12558  -0.003241  3.930135  -0.004  -0.129662  -0.003238  3.949368  -0.004  -0.069184  -0.122518  -0.003303  3.916988  -0.004
C  C52  1  0.73306658  0.40817637  0.72427096  1  -0.039854  0.009751  3.770626  0.011  -0.020927  0.002942  4.004895  0.003  -0.025385  0.002912  4.026804  0.003  -0.003525  -0.018261  0.003329  3.990277  0.004
C  C53  1  0.26693285  0.59182400  0.27572960  1  -0.039687  0.00974  3.770342  0.011  -0.020769  0.002941  4.004625  0.003  -0.025223  0.002912  4.026524  0.003  -0.003482  -0.01811  0.003329  3.990016  0.004
C  C54  1  0.75093849  0.33479186  0.81480926  1  -0.104997  -0.009856  3.691445  -0.011  -0.127453  -0.003104  3.934233  -0.004  -0.131032  -0.003161  3.953653  -0.004  -0.075138  -0.12536  -0.003218  3.922298  -0.004
C  C55  1  0.24906052  0.66520738  0.18518899  1  -0.105112  -0.009846  3.691301  -0.011  -0.127552  -0.003105  3.934088  -0.004  -0.131134  -0.00316  3.953512  -0.004  -0.075141  -0.125454  -0.003218  3.922152  -0.004
C  C56  1  0.68683825  0.36952628  0.89255807  1  0.119553  0.010537  3.681613  0.012  0.09481  0.002417  3.935535  0.004  0.101946  0.002917  3.95424  0.004  0.047821  0.08915  0.00218  3.924331  0.003
C  C57  1  0.31316265  0.63047518  0.10744122  1  0.119618  0.010534  3.681648  0.012  0.094862  0.002418  3.935579  0.004  0.101998  0.002917  3.954288  0.004  0.047829  0.089197  0.00218  3.924377  0.003
C  C58  1  0.79371563  0.37236060  0.63684613  1  0.662905  0.000222  3.790986  0.0  0.608938  8.3e-05  4.094074  0.0  0.643196  1e-05  4.083972  0.0  0.244848  0.585373  0.000283  4.100963  0.0
C  C59  1  0.20628376  0.62764309  0.36315442  1  0.662858  0.000235  3.791031  0.0  0.608886  8.3e-05  4.094121  0.0  0.643146  1.1e-05  4.084021  0.0  0.244839  0.585325  0.000283  4.101009  0.0
C  C60  1  0.05685857  0.04553710  0.23257827  1  0.136421  -0.009309  3.652024  -0.011  0.109562  -0.001754  3.910049  -0.003  0.117655  -0.002336  3.927823  -0.004  0.053932  0.10367  -0.001299  3.898794  -0.002
C  C61  1  0.94314235  0.95446436  0.76742177  1  0.1364  -0.009323  3.652134  -0.011  0.109547  -0.001754  3.910149  -0.003  0.117638  -0.002336  3.927925  -0.004  0.053884  0.10365  -0.0013  3.898899  -0.002
C  C62  1  0.03411765  0.09513446  0.32415397  1  -0.095029  0.009582  3.668582  0.011  -0.121231  0.003008  3.919072  0.004  -0.1249  0.00301  3.93752  0.004  -0.067315  -0.118743  0.003137  3.906845  0.004
C  C63  1  0.96588326  0.90486701  0.67584608  1  -0.095021  0.009583  3.668533  0.011  -0.121231  0.003009  3.919015  0.004  -0.124901  0.003009  3.937467  0.004  -0.067319  -0.118738  0.003137  3.906784  0.004
C  C64  1  0.97008342  0.21281685  0.32231768  1  -0.032792  -0.009294  3.75606  -0.01  -0.01435  -0.002829  3.991225  -0.003  -0.017873  -0.002784  4.011684  -0.003  -0.000609  -0.012198  -0.003128  3.977728  -0.003
C  C65  1  0.02991563  0.78718240  0.67768207  1  -0.032814  -0.009274  3.755982  -0.01  -0.014367  -0.00283  3.991161  -0.003  -0.017892  -0.002784  4.011622  -0.003  -0.000622  -0.012211  -0.003128  3.977664  -0.003
C  C66  1  0.93793288  0.28008121  0.22995869  1  -0.110978  0.008868  3.708468  0.01  -0.134083  0.002593  3.952993  0.003  -0.138958  0.002713  3.972822  0.003  -0.078995  -0.13096  0.002699  3.940009  0.003
C  C67  1  0.06206541  0.71991916  0.77004169  1  -0.110917  0.008859  3.70836  0.01  -0.134026  0.002594  3.9529  0.003  -0.138894  0.002713  3.972713  0.003  -0.078976  -0.130908  0.002699  3.939916  0.003
C  C68  1  0.96400761  0.22348855  0.14227730  1  0.118098  -0.009338  3.69458  -0.011  0.093195  -0.001811  3.949255  -0.003  0.101153  -0.002445  3.967663  -0.004  0.045532  0.087417  -0.001449  3.937618  -0.002
C  C69  1  0.03599297  0.77651182  0.85772344  1  0.118139  -0.009329  3.694551  -0.011  0.093228  -0.001811  3.949237  -0.003  0.101186  -0.002444  3.967647  -0.004  0.045546  0.087452  -0.00145  3.937601  -0.002
C  C70  1  0.93009017  0.26178652  0.41534061  1  0.66792  -0.000337  3.789516  0.0  0.613  -0.000233  4.092497  0.0  0.647125  -0.000114  4.08255  0.0  0.246228  0.589607  -0.000417  4.099179  0.0
C  C71  1  0.06991118  0.73821273  0.58466025  1  0.66795  -0.000339  3.789505  0.0  0.612991  -0.000233  4.092515  0.0  0.647115  -0.000114  4.082571  0.0  0.246204  0.589594  -0.000417  4.099196  0.0
S  S72  1  0.71491850  0.99934824  0.94516586  1  -0.246866  0.078384  2.255674  0.09  -0.279157  0.049711  2.609593  0.057  -0.315887  0.035589  2.602574  0.042  -0.101137  -0.252736  0.058691  2.614652  0.066
S  S73  1  0.28508275  0.00065432  0.05483274  1  -0.246923  0.0784  2.255446  0.09  -0.27923  0.04972  2.609368  0.057  -0.315961  0.035594  2.602346  0.042  -0.10118  -0.252802  0.058701  2.614427  0.066
S  S74  1  0.75838776  0.55949159  0.13424529  1  -0.23491  -0.075232  2.258425  -0.086  -0.262977  -0.047939  2.604208  -0.055  -0.295439  -0.034775  2.595001  -0.04  -0.095247  -0.238569  -0.057097  2.60954  -0.064
S  S75  1  0.24161470  0.44051100  0.86575649  1  -0.234902  -0.075235  2.258329  -0.086  -0.262968  -0.047943  2.604114  -0.055  -0.295433  -0.034777  2.594909  -0.04  -0.095225  -0.238562  -0.057097  2.609451  -0.064
N  N76  1  0.53511302  0.71159228  0.97137727  1  -0.489643  -0.00549  3.076324  -0.008  -0.477996  -0.010432  3.374305  -0.012  -0.5135  -0.010812  3.38016  -0.013  -0.38816  -0.454658  -0.010109  3.370467  -0.012
N  N77  1  0.46488837  0.28840365  0.02862359  1  -0.489564  -0.005498  3.076627  -0.008  -0.477909  -0.010436  3.374586  -0.012  -0.513409  -0.010816  3.380437  -0.013  -0.388088  -0.454574  -0.010114  3.370753  -0.012
N  N78  1  0.94599548  0.80599505  0.05899783  1  -0.488559  0.008621  3.084078  0.012  -0.473908  0.011532  3.385698  0.014  -0.508673  0.011688  3.390515  0.014  -0.38953  -0.450519  0.010699  3.381824  0.013
N  N79  1  0.05400430  0.19400641  0.94100203  1  -0.488525  0.008629  3.084108  0.012  -0.473869  0.011534  3.385728  0.014  -0.508633  0.011688  3.390543  0.014  -0.389516  -0.450481  0.010701  3.381858  0.013
N  N80  1  0.60832284  0.47111266  0.88390160  1  -0.260672  -0.061697  3.329844  -0.088  -0.214233  -0.040873  3.602304  -0.061  -0.244295  -0.0339  3.62878  -0.052  -0.312222  -0.194452  -0.046151  3.585233  -0.067
N  N81  1  0.39167771  0.52888770  0.11609838  1  -0.260684  -0.061689  3.3298  -0.088  -0.214248  -0.040873  3.602268  -0.061  -0.24431  -0.0339  3.628744  -0.052  -0.31224  -0.194461  -0.046151  3.585184  -0.067
N  N82  1  0.01862516  0.10581872  0.14250776  1  -0.261091  0.060812  3.324426  0.087  -0.21757  0.040906  3.600338  0.06  -0.247993  0.033628  3.626389  0.051  -0.312677  -0.197685  0.046927  3.583391  0.067
N  N83  1  0.98137686  0.89418274  0.85749096  1  -0.261126  0.060811  3.32445  0.087  -0.217604  0.040906  3.600355  0.06  -0.248029  0.033628  3.626407  0.051  -0.312664  -0.197717  0.046927  3.58341  0.067
O  O84  1  0.57263084  0.79473917  0.62792686  1  -0.45372  1e-05  1.938502  0.0  -0.4102  2.6e-05  2.149837  0.0  -0.427417  -3e-06  2.146808  0.0  -0.251701  -0.398027  0.000125  2.151687  0.0
O  O85  1  0.42736626  0.20526118  0.37207109  1  -0.453667  1.3e-05  1.938426  0.0  -0.410133  2.6e-05  2.149807  0.0  -0.427347  -3e-06  2.146778  0.0  -0.251654  -0.397958  0.000125  2.151647  0.0
O  O86  1  0.86223394  0.26651981  0.65158871  1  -0.531419  -5.7e-05  2.103154  0.001  -0.479395  -0.000489  2.324154  0.0  -0.502244  -0.000379  2.309668  0.0  -0.313287  -0.463883  -0.000507  2.333533  0.0
O  O87  1  0.13777142  0.73348829  0.34841129  1  -0.531531  -6.3e-05  2.103093  0.001  -0.479478  -0.000489  2.324136  0.0  -0.502326  -0.000379  2.309658  0.0  -0.313344  -0.463962  -0.000506  2.333516  0.0
O  O88  1  0.77769814  0.43927412  0.55641194  1  -0.552255  0.001241  1.987385  0.002  -0.501899  0.000409  2.198865  0.001  -0.524333  0.000388  2.189114  0.001  -0.27767  -0.486855  0.000517  2.205536  0.001
O  O89  1  0.22229977  0.56072513  0.44358763  1  -0.552211  0.001235  1.987347  0.002  -0.501848  0.000409  2.198822  0.001  -0.524275  0.000388  2.189058  0.001  -0.277639  -0.486804  0.000517  2.205494  0.001
O  O90  1  0.95909171  0.20395036  0.49895917  1  -0.555653  -0.001071  1.989696  -0.002  -0.5035  -0.000332  2.204925  -0.001  -0.526142  -0.000314  2.196157  -0.001  -0.276286  -0.488224  -0.000414  2.210741  -0.001
O  O91  1  0.04091679  0.79605332  0.50104281  1  -0.555692  -0.001075  1.989684  -0.002  -0.503495  -0.000332  2.204941  -0.001  -0.526138  -0.000314  2.196176  -0.001  -0.276255  -0.488219  -0.000415  2.210766  -0.001
O  O92  1  0.86022544  0.36644937  0.40008361  1  -0.528205  -0.000508  2.096288  -0.001  -0.476425  -0.000239  2.310153  0.0  -0.49857  -0.000174  2.293947  0.0  -0.316107  -0.461467  -0.000335  2.319987  0.0
O  O93  1  0.13976839  0.63354435  0.59991605  1  -0.528272  -0.000503  2.096283  -0.001  -0.476448  -0.000239  2.310115  0.0  -0.498594  -0.000175  2.29392  0.0  -0.316115  -0.46149  -0.000335  2.319949  0.0
