# generated using pymatgen
data_CdH8(C5N4)2
_symmetry_space_group_name_H-M   'P 1'
_cell_length_a   6.65328309
_cell_length_b   9.51957131
_cell_length_c   9.51960056
_cell_angle_alpha   101.12259310
_cell_angle_beta   91.04365126
_cell_angle_gamma   91.04347547
_symmetry_Int_Tables_number   1
_chemical_formula_structural   CdH8(C5N4)2
_chemical_formula_sum   'Cd2 H16 C20 N16'
_cell_volume   591.36889613
_cell_formula_units_Z   2
loop_
 _symmetry_equiv_pos_site_id
 _symmetry_equiv_pos_as_xyz
  1  'x, y, z'
loop_
 _atom_site_type_symbol
 _atom_site_label
 _atom_site_symmetry_multiplicity
 _atom_site_fract_x
 _atom_site_fract_y
 _atom_site_fract_z
 _atom_site_occupancy
 _atom_site_hle17_bader_spin_density
 _atom_site_hle17_ddec_charge
 _atom_site_hle17_ddec_spin_density
 _atom_site_hle17_ddec_sum_bond_order
 _atom_site_hle17_magmom
 _atom_site_hse06_10hf_bader_spin_density
 _atom_site_hse06_10hf_ddec_charge
 _atom_site_hse06_10hf_ddec_spin_density
 _atom_site_hse06_10hf_ddec_sum_bond_order
 _atom_site_hse06_10hf_magmom
 _atom_site_hse06_bader_spin_density
 _atom_site_hse06_ddec_charge
 _atom_site_hse06_ddec_spin_density
 _atom_site_hse06_ddec_sum_bond_order
 _atom_site_hse06_magmom
 _atom_site_pbe_bader_spin_density
 _atom_site_pbe_cm5_charge
 _atom_site_pbe_ddec_charge
 _atom_site_pbe_ddec_spin_density
 _atom_site_pbe_ddec_sum_bond_order
 _atom_site_pbe_magmom
Cd  Cd0  1  0.74999913  0.56447747  0.43552118  1  0  1.029677  0  1.850062  0  0  0.835105  0  2.31455  0  0  0.882753  0  2.27628  0  0  0.787905  0.801038  0  2.340258  0
Cd  Cd1  1  0.24999979  0.43552228  0.56447732  1  0  1.029676  0  1.850061  0  0  0.835104  0  2.314546  0  0  0.882752  0  2.276278  0  0  0.787909  0.801039  0  2.340256  0
H  H2  1  0.88910505  0.96167614  0.11200658  1  0  0.1067  0  0.952633  0  0  0.117622  0  1.013484  0  0  0.120367  0  1.012383  0  0  0.110215  0.115888  0  1.013993  0
H  H3  1  0.61089706  0.88799227  0.03832207  1  0  0.106667  0  0.952647  0  0  0.117605  0  1.013477  0  0  0.12035  0  1.012376  0  0  0.110209  0.115871  0  1.013988  0
H  H4  1  0.11089836  0.03832255  0.88799283  1  0  0.106681  0  0.952641  0  0  0.117616  0  1.013483  0  0  0.120362  0  1.012382  0  0  0.110206  0.115886  0  1.013991  0
H  H5  1  0.38910190  0.11200855  0.96167768  1  0  0.106693  0  0.952638  0  0  0.117613  0  1.013492  0  0  0.120359  0  1.012391  0  0  0.110218  0.115882  0  1.014002  0
H  H6  1  0.13969901  0.77143673  0.52390102  1  0  0.066604  0  0.996953  0  0  0.068597  0  1.074253  0  0  0.070188  0  1.07381  0  0  0.107792  0.067542  0  1.074513  0
H  H7  1  0.36029825  0.47610064  0.22856336  1  0  0.066603  0  0.996972  0  0  0.06859  0  1.074282  0  0  0.070179  0  1.073838  0  0  0.10779  0.067535  0  1.074536  0
H  H8  1  0.86029407  0.22856842  0.47610471  1  0  0.066629  0  0.996843  0  0  0.068582  0  1.074206  0  0  0.070167  0  1.073758  0  0  0.107784  0.067481  0  1.074499  0
H  H9  1  0.63970369  0.52389910  0.77143517  1  0  0.066664  0  0.996924  0  0  0.06862  0  1.074246  0  0  0.070208  0  1.073801  0  0  0.107797  0.067551  0  1.074516  0
H  H10  1  0.34485548  0.96236962  0.43897998  1  0  0.102036  0  0.95053  0  0  0.109533  0  1.015858  0  0  0.112449  0  1.01508  0  0  0.104576  0.107538  0  1.016379  0
H  H11  1  0.15514394  0.56102053  0.03762807  1  0  0.102041  0  0.950495  0  0  0.109525  0  1.015842  0  0  0.112442  0  1.015062  0  0  0.10455  0.107516  0  1.016372  0
H  H12  1  0.65514198  0.03763123  0.56102290  1  0  0.102048  0  0.950485  0  0  0.109537  0  1.015822  0  0  0.112452  0  1.015044  0  0  0.104568  0.107536  0  1.016351  0
H  H13  1  0.84485940  0.43897600  0.96236884  1  0  0.102081  0  0.950419  0  0  0.109551  0  1.015788  0  0  0.112467  0  1.015006  0  0  0.104557  0.107522  0  1.01634  0
H  H14  1  0.21199428  0.05892547  0.22819295  1  0  0.09322  0  0.967404  0  0  0.099807  0  1.034086  0  0  0.101719  0  1.033368  0  0  0.103473  0.098166  0  1.034822  0
H  H15  1  0.28800730  0.77180649  0.94107205  1  0  0.093234  0  0.967416  0  0  0.099828  0  1.034079  0  0  0.101739  0  1.033362  0  0  0.103495  0.098184  0  1.034816  0
H  H16  1  0.78800765  0.94107430  0.77180769  1  0  0.093236  0  0.967388  0  0  0.099822  0  1.034066  0  0  0.101734  0  1.03335  0  0  0.103477  0.098179  0  1.034806  0
H  H17  1  0.71199310  0.22819219  0.05892627  1  0  0.093228  0  0.967393  0  0  0.099814  0  1.034073  0  0  0.101725  0  1.033356  0  0  0.103469  0.098173  0  1.034813  0
C  C18  1  0.84556941  0.81201011  0.25432367  1  0  0.183524  0  3.745972  0  0  0.179808  0  3.983783  0  0  0.186595  0  4.003855  0  0  0.123873  0.175208  0  3.970173  0
C  C19  1  0.65443116  0.74567473  0.18798775  1  0  0.183617  0  3.745816  0  0  0.179837  0  3.983682  0  0  0.186661  0  4.003715  0  0  0.123885  0.175237  0  3.970071  0
C  C20  1  0.15442955  0.18799073  0.74567713  1  0  0.183521  0  3.746019  0  0  0.179768  0  3.98388  0  0  0.186583  0  4.003911  0  0  0.123863  0.17517  0  3.970261  0
C  C21  1  0.34556931  0.25432609  0.81201202  1  0  0.183605  0  3.745835  0  0  0.179832  0  3.983714  0  0  0.186646  0  4.003744  0  0  0.123865  0.175237  0  3.970097  0
C  C22  1  0.94826903  0.92083203  0.20292531  1  0  -0.121326  0  3.694272  0  0  -0.143616  0  3.947162  0  0  -0.150398  0  3.968463  0  0  -0.072447  -0.139214  0  3.932628  0
C  C23  1  0.55173350  0.79707414  0.07916614  1  0  -0.121287  0  3.694191  0  0  -0.143568  0  3.947101  0  0  -0.15036  0  3.968395  0  0  -0.072457  -0.139172  0  3.932573  0
C  C24  1  0.05173143  0.07916881  0.79707550  1  0  -0.121346  0  3.694348  0  0  -0.143639  0  3.94725  0  0  -0.150432  0  3.968546  0  0  -0.072467  -0.139239  0  3.932719  0
C  C25  1  0.44826843  0.20292561  0.92083239  1  0  -0.121359  0  3.694264  0  0  -0.143635  0  3.947175  0  0  -0.150427  0  3.968468  0  0  -0.07247  -0.139231  0  3.932642  0
C  C26  1  0.09222769  0.81604723  0.43194751  1  0  0.132777  0  3.73056  0  0  0.102016  0  3.985837  0  0  0.108548  0  4.005547  0  0  0.041808  0.097727  0  3.972382  0
C  C27  1  0.40777263  0.56805206  0.18395110  1  0  0.132745  0  3.730544  0  0  0.10198  0  3.985829  0  0  0.108514  0  4.005539  0  0  0.041792  0.09769  0  3.972364  0
C  C28  1  0.90776984  0.18395577  0.56805682  1  0  0.132798  0  3.7304  0  0  0.102053  0  3.985668  0  0  0.108597  0  4.005369  0  0  0.041818  0.097804  0  3.972224  0
C  C29  1  0.59222926  0.43194660  0.81604618  1  0  0.132762  0  3.730626  0  0  0.102044  0  3.985873  0  0  0.108584  0  4.00558  0  0  0.041846  0.09777  0  3.972415  0
C  C30  1  0.20375811  0.92236251  0.38494908  1  0  -0.104359  0  3.714667  0  0  -0.119619  0  3.968685  0  0  -0.12619  0  3.991074  0  0  -0.083581  -0.115408  0  3.95357  0
C  C31  1  0.29624271  0.61505157  0.07763461  1  0  -0.104295  0  3.714619  0  0  -0.119538  0  3.96862  0  0  -0.126109  0  3.991008  0  0  -0.083533  -0.115314  0  3.953508  0
C  C32  1  0.79623939  0.07763941  0.61505401  1  0  -0.104318  0  3.714588  0  0  -0.11956  0  3.968585  0  0  -0.126133  0  3.990971  0  0  -0.083546  -0.115343  0  3.953465  0
C  C33  1  0.70376217  0.38494602  0.92236146  1  0  -0.104347  0  3.714587  0  0  -0.119594  0  3.968579  0  0  -0.126167  0  3.990966  0  0  -0.083574  -0.115348  0  3.953471  0
C  C34  1  0.12925300  0.97570674  0.26840093  1  0  -0.005155  0  3.721532  0  0  -0.022535  0  3.971223  0  0  -0.020048  0  3.99191  0  0  -0.068172  -0.02369  0  3.956944  0
C  C35  1  0.37074976  0.73159905  0.02429007  1  0  -0.005246  0  3.721608  0  0  -0.022637  0  3.971307  0  0  -0.02015  0  3.991993  0  0  -0.068202  -0.023789  0  3.957026  0
C  C36  1  0.87074744  0.02429304  0.73160180  1  0  -0.005195  0  3.721493  0  0  -0.022575  0  3.971176  0  0  -0.020087  0  3.991862  0  0  -0.068155  -0.023731  0  3.956907  0
C  C37  1  0.62925514  0.26839962  0.97570725  1  0  -0.005235  0  3.721555  0  0  -0.02261  0  3.971237  0  0  -0.020122  0  3.991923  0  0  -0.068167  -0.023764  0  3.956954  0
N  N38  1  0.04440858  0.34313748  0.24321881  1  0  0.39731  0  4.23189  0  0  0.430916  0  4.507708  0  0  0.447101  0  4.536265  0  0  0.080035  0.42018  0  4.487754  0
N  N39  1  0.45559147  0.75678028  0.65686278  1  0  0.397309  0  4.231739  0  0  0.430911  0  4.507571  0  0  0.447096  0  4.536126  0  0  0.080026  0.420173  0  4.487622  0
N  N40  1  0.95559329  0.65686007  0.75677407  1  0  0.39728  0  4.231786  0  0  0.430882  0  4.507618  0  0  0.447068  0  4.536178  0  0  0.08011  0.420143  0  4.487667  0
N  N41  1  0.54440602  0.24322163  0.34313925  1  0  0.397319  0  4.231689  0  0  0.430926  0  4.5075  0  0  0.447114  0  4.536056  0  0  0.080128  0.420192  0  4.487542  0
N  N42  1  0.91869297  0.76233366  0.36825211  1  0  -0.368934  0  3.259238  0  0  -0.295373  0  3.51503  0  0  -0.314285  0  3.534012  0  0  -0.330099  -0.282346  0  3.501717  0
N  N43  1  0.58130615  0.63174709  0.23766497  1  0  -0.368957  0  3.259231  0  0  -0.295378  0  3.515046  0  0  -0.314299  0  3.534016  0  0  -0.330102  -0.28235  0  3.501733  0
N  N44  1  0.08130456  0.23766933  0.63175117  1  0  -0.36896  0  3.259191  0  0  -0.29539  0  3.515002  0  0  -0.314308  0  3.533964  0  0  -0.330117  -0.282364  0  3.501672  0
N  N45  1  0.41869582  0.36825374  0.76233481  1  0  -0.368981  0  3.259282  0  0  -0.295402  0  3.515067  0  0  -0.314325  0  3.534039  0  0  -0.330105  -0.282379  0  3.501757  0
N  N46  1  0.01653750  0.40963035  0.36231193  1  0  -0.613339  0  2.755303  0  0  -0.562707  0  3.062738  0  0  -0.588687  0  3.069076  0  0  -0.325323  -0.544606  0  3.057448  0
N  N47  1  0.48346272  0.63768894  0.59037025  1  0  -0.613317  0  2.755272  0  0  -0.562697  0  3.062716  0  0  -0.588674  0  3.069053  0  0  -0.325312  -0.544601  0  3.057449  0
N  N48  1  0.98346306  0.59037373  0.63769264  1  0  -0.613265  0  2.755532  0  0  -0.562659  0  3.063001  0  0  -0.588626  0  3.069336  0  0  -0.325363  -0.54457  0  3.057741  0
N  N49  1  0.51653615  0.36230868  0.40962996  1  0  -0.613324  0  2.755364  0  0  -0.562707  0  3.062811  0  0  -0.58868  0  3.069147  0  0  -0.325381  -0.544617  0  3.05754  0
N  N50  1  0.07439568  0.27897563  0.12832950  1  0  -0.383905  0  2.405252  0  0  -0.381966  0  2.636841  0  0  -0.388712  0  2.64742  0  0  -0.186082  -0.377474  0  2.629905  0
N  N51  1  0.42560393  0.87167123  0.72102634  1  0  -0.383916  0  2.405102  0  0  -0.381983  0  2.636705  0  0  -0.388731  0  2.647284  0  0  -0.186083  -0.377475  0  2.629748  0
N  N52  1  0.92560038  0.72102845  0.87167606  1  0  -0.383971  0  2.404821  0  0  -0.382038  0  2.636424  0  0  -0.388796  0  2.647008  0  0  -0.186158  -0.377525  0  2.629459  0
N  N53  1  0.57439491  0.12832531  0.27897262  1  0  -0.383949  0  2.404956  0  0  -0.382018  0  2.636558  0  0  -0.388772  0  2.647138  0  0  -0.186146  -0.377508  0  2.629596  0
