# generated using pymatgen
data_Zn2H35C54N4Cl5O17
_symmetry_space_group_name_H-M   'P 1'
_cell_length_a   9.60117360
_cell_length_b   10.74203084
_cell_length_c   27.42278691
_cell_angle_alpha   89.46029127
_cell_angle_beta   90.85715083
_cell_angle_gamma   89.77893340
_symmetry_Int_Tables_number   1
_chemical_formula_structural   Zn2H35C54N4Cl5O17
_chemical_formula_sum   'Zn2 H35 C54 N4 Cl5 O17'
_cell_volume   2827.81480431
_cell_formula_units_Z   1
loop_
 _symmetry_equiv_pos_site_id
 _symmetry_equiv_pos_as_xyz
  1  'x, y, z'
loop_
 _atom_site_type_symbol
 _atom_site_label
 _atom_site_symmetry_multiplicity
 _atom_site_fract_x
 _atom_site_fract_y
 _atom_site_fract_z
 _atom_site_occupancy
 _atom_site_pbe_bader_charge
 _atom_site_pbe_bader_spin_density
 _atom_site_pbe_cm5_charge
 _atom_site_pbe_ddec_charge
 _atom_site_pbe_ddec_spin_density
 _atom_site_pbe_ddec_sum_bond_order
 _atom_site_pbe_magmom
Zn  Zn0  1  0.36790422  0.48841746  0.49968459  1  1.276172  0  0.683276  0.836774  0  2.359129  0
Zn  Zn1  1  0.66621515  0.47746744  0.49885750  1  1.28619  0  0.679546  0.831082  0  2.333123  0
H  H2  1  0.36359616  0.67589748  0.62396920  1  0.107642  0  0.114535  0.143646  0  1.001648  0
H  H3  1  0.73426641  0.85215034  0.87175663  1  0.159592  0  0.118009  0.124819  0  0.973769  0
H  H4  1  0.34131153  0.66270738  0.36192322  1  0.111788  0  0.100937  0.106402  0  1.018733  0
H  H5  1  0.31583559  0.72039063  0.27357859  1  0.092903  0  0.110222  0.12412  0  0.978469  0
H  H6  1  0.74699151  0.82505621  0.12282906  1  0.12107  0  0.116323  0.122255  0  0.980012  0
H  H7  1  0.73492854  0.85543578  0.03334922  1  0.071542  0  0.106246  0.105442  0  1.005461  0
H  H8  1  0.73130880  0.86328313  0.96176883  1  0.080236  0  0.106387  0.104837  0  1.005843  0
H  H9  1  0.12026606  0.55507150  0.86891326  1  0.103445  0  0.119067  0.126518  0  0.973969  0
H  H10  1  0.12196387  0.54160203  0.02929058  1  0.044043  0  0.106241  0.105167  0  1.006524  0
H  H11  1  0.14365476  0.51190253  0.11862582  1  0.115045  0  0.116257  0.121541  0  0.979931  0
H  H12  1  0.65502901  0.47269760  0.24146786  1  0.064595  0  0.108027  0.12525  0  0.994028  0
H  H13  1  0.10933625  0.56434456  0.95893204  1  0.064478  0  0.106636  0.104989  0  1.007023  0
H  H14  1  0.30593239  0.86374066  0.52644253  1  0.113873  0  0.106124  0.087077  0  0.97111  0
H  H15  1  0.71699388  0.89889121  0.47287431  1  0.065393  0  0.103479  0.078394  0  0.963574  0
H  H16  1  0.29730571  0.08643380  0.46556914  1  0.057218  0  0.092941  0.105608  0  1.002658  0
H  H17  1  0.51741296  0.07364359  0.42153792  1  0.073333  0  0.096083  0.111575  0  0.977697  0
H  H18  1  0.29571520  0.07936885  0.52989288  1  0.042203  0  0.098057  0.109404  0  0.965584  0
H  H19  1  0.67894910  0.10756551  0.45053239  1  0.0754  0  0.098585  0.112085  0  0.973898  0
H  H20  1  0.50077336  0.88301083  0.57807439  1  0.038622  0  0.097333  0.09994  0  0.977512  0
H  H21  1  0.67282336  0.87460030  0.55640892  1  0.041205  0  0.099183  0.10363  0  0.97096  0
H  H22  1  0.52488711  0.09957514  0.57812833  1  0.02485  0  0.094724  0.097384  0  0.971878  0
H  H23  1  0.68346489  0.09281459  0.54676543  1  0.047774  0  0.097659  0.110349  0  0.981321  0
H  H24  1  0.87335273  0.66778931  0.52095167  1  0.106101  0  0.115848  0.054455  0  0.983965  0
H  H25  1  0.11025227  0.68117840  0.50313013  1  0.078052  0  0.11657  0.051906  0  0.986689  0
H  H26  1  0.88552020  0.44000670  0.42745228  1  0.086461  0  0.117542  0.116932  0  0.970081  0
H  H27  1  0.13091409  0.40690516  0.43552934  1  0.080937  0  0.117964  0.110238  0  0.949961  0
H  H28  1  0.90020986  0.59857667  0.44228095  1  0.076681  0  0.119109  0.113679  0  0.953119  0
H  H29  1  0.14462668  0.57075401  0.43336093  1  0.10822  0  0.113363  0.110257  0  0.980748  0
H  H30  1  0.92425176  0.29303440  0.48919765  1  0.064397  0  0.127094  0.063148  0  0.935145  0
H  H31  1  0.16103853  0.29704941  0.50836478  1  0.101635  0  0.114884  0.050647  0  1.002667  0
H  H32  1  0.75036596  0.37082704  0.30436262  1  0.60124  0  0.339461  0.362662  0  0.873641  0
H  H33  1  0.80216084  0.54904162  0.58824972  1  0.64083  0  0.30661  0.367354  0  0.956236  0
H  H34  1  0.09779586  0.59604360  0.59854102  1  0.631824  0  0.321263  0.367821  0  0.908584  0
H  H35  1  0.93404585  0.33463849  0.58905741  1  0.616175  0  0.317996  0.363573  0  0.914293  0
H  H36  1  0.23554798  0.38785917  0.58319799  1  0.669745  0  0.308761  0.370253  0  0.946872  0
C  C37  1  0.52461909  0.71972970  0.50389041  1  1.607098  0  0.217814  0.588529  0  4.132844  0
C  C38  1  0.51720042  0.48533340  0.59617328  1  1.622066  0  0.227174  0.620337  0  4.162568  0
C  C39  1  0.50127536  0.24594969  0.49713924  1  1.542579  0  0.227423  0.595885  0  4.097272  0
C  C40  1  0.51730213  0.51006522  0.40549591  1  1.607937  0  0.216667  0.612279  0  4.1611  0
C  C41  1  0.55666189  0.73562563  0.81300372  1  1.363847  0  0.237187  0.436648  0  4.117829  0
C  C42  1  0.32946504  0.62015195  0.81258539  1  1.343649  0  0.238813  0.439035  0  4.107786  0
C  C43  1  0.55684163  0.51851792  0.73406066  1  0.143966  0  0.019285  0.040836  0  4.00589  0
C  C44  1  0.57386273  0.47177553  0.68686268  1  0.08269  0  0.010373  0.061354  0  4.031535  0
C  C45  1  0.41955093  0.63401689  0.65492790  1  0.03655  0  -0.086374  -0.154558  0  3.929842  0
C  C46  1  0.40653998  0.68232401  0.70158837  1  0.101276  0  0.022909  0.103024  0  4.039604  0
C  C47  1  0.47349436  0.62430722  0.74143604  1  0.437711  0  0.083591  0.082476  0  4.009239  0
C  C48  1  0.42917839  0.70028149  0.89162367  1  -0.068117  0  0.005782  0.040453  0  3.988976  0
C  C49  1  0.54344672  0.75140658  0.86627476  1  -0.037688  0  -0.009227  -0.066031  0  3.987138  0
C  C50  1  0.64837662  0.81187422  0.89206494  1  -0.044745  0  -0.066726  -0.064334  0  3.964349  0
C  C51  1  0.31949465  0.64200383  0.86546087  1  0.031126  0  -0.00915  -0.066084  0  3.990819  0
C  C52  1  0.50359062  0.52966402  0.64768684  1  0.077009  0  -0.01036  -0.049802  0  3.964296  0
C  C53  1  0.51083469  0.53687007  0.35186694  1  0.021307  0  -0.025738  -0.145362  0  3.910818  0
C  C54  1  0.54190770  0.75531590  0.02312121  1  0.036119  0  0.004502  0.041614  0  3.972512  0
C  C55  1  0.31562321  0.64152247  0.02182192  1  -0.051721  0  0.004341  0.040464  0  3.979582  0
C  C56  1  0.43283222  0.69115289  0.04776965  1  -0.00909  0  0.003303  -0.001009  0  3.913758  0
C  C57  1  0.65152460  0.80458460  0.05107359  1  -0.028288  0  -0.083171  -0.124726  0  3.9728  0
C  C58  1  0.65983936  0.78797617  0.10163332  1  -0.082409  0  -0.069423  -0.069877  0  3.976349  0
C  C59  1  0.55822881  0.72109791  0.12599403  1  -0.014128  0  -0.01165  -0.073283  0  4.00222  0
C  C60  1  0.44265827  0.67359825  0.09952695  1  -0.037034  0  0.003636  0.037123  0  4.002686  0
C  C61  1  0.33791594  0.60695397  0.12436913  1  0.001006  0  -0.012054  -0.072187  0  4.003042  0
C  C62  1  0.35006813  0.58012800  0.17726758  1  1.323044  0  0.240635  0.433308  0  4.104853  0
C  C63  1  0.57414118  0.69893717  0.17918866  1  1.355942  0  0.239304  0.431196  0  4.104303  0
C  C64  1  0.39526922  0.65436112  0.28600635  1  -0.019042  0  -0.097467  -0.183479  0  3.997422  0
C  C65  1  0.40905559  0.62154944  0.33492492  1  -0.025311  0  -0.079812  -0.048501  0  3.990549  0
C  C66  1  0.60161261  0.48380934  0.31771778  1  0.478299  0  0.09223  0.321411  0  4.042212  0
C  C67  1  0.58629414  0.51467563  0.26814947  1  0.017354  0  -0.106733  -0.311066  0  3.979042  0
C  C68  1  0.48428903  0.59910505  0.25280219  1  0.313183  0  0.089922  0.225641  0  4.03762  0
C  C69  1  0.53875839  0.76181104  0.96975358  1  -0.027537  0  0.004056  0.038429  0  3.977279  0
C  C70  1  0.42580259  0.70513363  0.94373851  1  0.007346  0  0.004155  -0.000982  0  3.917173  0
C  C71  1  0.31087523  0.65060765  0.96858264  1  -0.000438  0  0.004422  0.039256  0  3.9814  0
C  C72  1  0.64553069  0.81710645  0.94294104  1  -0.000929  0  -0.08218  -0.123085  0  3.971598  0
C  C73  1  0.20442937  0.59725005  0.89008067  1  -0.021264  0  -0.065649  -0.063129  0  3.964868  0
C  C74  1  0.21231382  0.58000119  0.04821574  1  0.022345  0  -0.083173  -0.125333  0  3.976723  0
C  C75  1  0.22319813  0.56239522  0.09861692  1  -0.042543  0  -0.068926  -0.067059  0  3.97695  0
C  C76  1  0.20016983  0.60245591  0.94087063  1  -0.018553  0  -0.082401  -0.123345  0  3.975028  0
C  C77  1  0.36126289  0.90670750  0.49604643  1  0.105457  0  -0.040788  0.091376  0  3.720037  0
C  C78  1  0.60957647  0.91651042  0.46047018  1  0.105257  0  -0.043824  0.088619  0  3.766623  0
C  C79  1  0.35379190  0.05001045  0.49766771  1  -0.041145  0  -0.166727  -0.242468  0  3.888475  0
C  C80  1  0.58096980  0.05646266  0.45457098  1  -0.03546  0  -0.161792  -0.238171  0  3.862655  0
C  C81  1  0.56942154  0.91512002  0.54883354  1  -0.070047  0  -0.149189  -0.164791  0  3.832851  0
C  C82  1  0.51339057  0.86116238  0.49952546  1  0.008774  0  -0.020114  -0.063492  0  3.785287  0
C  C83  1  0.50122032  0.10434993  0.49927838  1  0.050978  0  -0.016156  0.041444  0  3.809332  0
C  C84  1  0.57588357  0.05871482  0.54636178  1  0.028334  0  -0.158804  -0.182882  0  3.8556  0
C  C85  1  0.93049100  0.58521961  0.53479297  1  0.757312  0  0.079769  0.203426  0  3.857326  0
C  C86  1  0.09045757  0.60452644  0.52895388  1  0.785435  0  0.085445  0.224744  0  3.831857  0
C  C87  1  0.94502586  0.35566041  0.51997469  1  0.790215  0  0.08693  0.226574  0  3.846061  0
C  C88  1  0.10516819  0.37127264  0.52759521  1  0.756951  0  0.077945  0.198541  0  3.872058  0
C  C89  1  0.93565626  0.50467220  0.45290475  1  0.214683  0  -0.069167  -0.095675  0  3.840237  0
C  C90  1  0.09598024  0.49309541  0.45288091  1  0.216001  0  -0.069573  -0.092458  0  3.842285  0
N  N91  1  0.45116227  0.66490953  0.79017495  1  -1.14985  0  -0.242673  -0.230904  0  3.674933  0
N  N92  1  0.46919969  0.62736981  0.20141168  1  -1.179989  0  -0.229064  -0.205051  0  3.553325  0
N  N93  1  0.88318659  0.47925402  0.50300805  1  -0.980307  0  -0.342599  -0.243079  0  3.396528  0
N  N94  1  0.15114394  0.49129416  0.50410913  1  -0.971947  0  -0.342827  -0.243423  0  3.398956  0
Cl  Cl95  1  0.63481925  0.44535606  0.78335352  1  -0.182255  0  0.00091  -0.050205  0  1.529984  0
Cl  Cl96  1  0.26608712  0.84956281  0.44293175  1  -0.293718  0  -0.070737  -0.167987  0  1.390261  0
Cl  Cl97  1  0.60088008  0.84144557  0.40190831  1  -0.265787  0  -0.069967  -0.157406  0  1.415853  0
Cl  Cl98  1  0.30537766  0.81269719  0.71036811  1  -0.186982  0  -0.0015  -0.055833  0  1.439836  0
Cl  Cl99  1  0.67451342  0.34183268  0.67714209  1  -0.169004  0  0.008753  -0.037382  0  1.516714  0
O  O100  1  0.41687501  0.66316689  0.51866053  1  -1.169831  0  -0.3133  -0.538332  0  2.411975  0
O  O101  1  0.64097322  0.66948275  0.49471865  1  -1.173734  0  -0.309089  -0.544667  0  2.377439  0
O  O102  1  0.41038391  0.43865290  0.57575515  1  -1.180079  0  -0.298758  -0.547211  0  2.333023  0
O  O103  1  0.63281753  0.50455422  0.57561581  1  -1.169528  0  -0.292275  -0.542399  0  2.382215  0
O  O104  1  0.38699314  0.30243407  0.48777464  1  -1.175222  0  -0.314665  -0.541092  0  2.357981  0
O  O105  1  0.61833129  0.29699340  0.50486026  1  -1.161106  0  -0.30752  -0.527717  0  2.397975  0
O  O106  1  0.40441335  0.52912610  0.42844105  1  -1.177107  0  -0.320828  -0.567579  0  2.379056  0
O  O107  1  0.63189734  0.47375957  0.42467782  1  -1.156573  0  -0.312612  -0.534115  0  2.335723  0
O  O108  1  0.65467785  0.77613584  0.78946490  1  -1.093912  0  -0.278472  -0.42958  0  2.061051  0
O  O109  1  0.67351976  0.73850188  0.20312597  1  -1.100771  0  -0.281568  -0.436902  0  2.063624  0
O  O110  1  0.24187267  0.56226210  0.78898349  1  -1.102226  0  -0.276485  -0.429778  0  2.068552  0
O  O111  1  0.26341295  0.51826253  0.19936446  1  -1.103619  0  -0.282293  -0.440801  0  2.067133  0
O  O112  1  0.70160850  0.40047203  0.33295077  1  -1.111652  0  -0.345755  -0.432062  0  2.270016  0
O  O113  1  0.90386812  0.56210715  0.58402523  1  -1.161607  0  -0.394845  -0.516154  0  2.296677  0
O  O114  1  0.15546496  0.63339746  0.57304138  1  -1.133508  0  -0.389424  -0.482123  0  2.271131  0
O  O115  1  0.88104133  0.30526321  0.56061341  1  -1.110951  0  -0.389571  -0.477365  0  2.262021  0
O  O116  1  0.13548816  0.36910847  0.57765370  1  -1.197001  0  -0.396445  -0.512918  0  2.279363  0
