# generated using pymatgen
data_MgH7C7NO7
_symmetry_space_group_name_H-M   'P 1'
_cell_length_a   4.72209889
_cell_length_b   8.66328790
_cell_length_c   20.80727160
_cell_angle_alpha   90.00008919
_cell_angle_beta   89.99992321
_cell_angle_gamma   91.35285225
_symmetry_Int_Tables_number   1
_chemical_formula_structural   MgH7C7NO7
_chemical_formula_sum   'Mg4 H28 C28 N4 O28'
_cell_volume   850.96537051
_cell_formula_units_Z   4
loop_
 _symmetry_equiv_pos_site_id
 _symmetry_equiv_pos_as_xyz
  1  'x, y, z'
loop_
 _atom_site_type_symbol
 _atom_site_label
 _atom_site_symmetry_multiplicity
 _atom_site_fract_x
 _atom_site_fract_y
 _atom_site_fract_z
 _atom_site_occupancy
 _atom_site_pbe_bader_spin_density
 _atom_site_pbe_cm5_charge
 _atom_site_pbe_ddec_charge
 _atom_site_pbe_ddec_spin_density
 _atom_site_pbe_ddec_sum_bond_order
 _atom_site_pbe_magmom
Mg  Mg0  1  0.68845417  0.31715766  0.37823748  1  0  0.80182  1.392728  0  1.366452  0
Mg  Mg1  1  0.31154600  0.18284310  0.87823769  1  0  0.801823  1.392765  0  1.366446  0
Mg  Mg2  1  0.31154583  0.68284307  0.62176213  1  0  0.801799  1.392722  0  1.366477  0
Mg  Mg3  1  0.68845400  0.81715763  0.12176240  1  0  0.80181  1.392721  0  1.366461  0
H  H4  1  0.44157556  0.22824034  0.26809426  1  0  0.298899  0.397981  0  0.940322  0
H  H5  1  0.55842530  0.27176117  0.76809446  1  0  0.298903  0.397989  0  0.940308  0
H  H6  1  0.55842656  0.77176039  0.73190535  1  0  0.29891  0.397993  0  0.940302  0
H  H7  1  0.44157466  0.72823840  0.23190563  1  0  0.298895  0.397988  0  0.940311  0
H  H8  1  0.20471122  0.19765558  0.32330095  1  0  0.301286  0.382953  0  0.962193  0
H  H9  1  0.79528927  0.30234499  0.82330110  1  0  0.301277  0.382964  0  0.962173  0
H  H10  1  0.79528878  0.80234516  0.67669866  1  0  0.301282  0.382959  0  0.962179  0
H  H11  1  0.20471073  0.69765574  0.17669900  1  0  0.301292  0.382975  0  0.962162  0
H  H12  1  0.09785866  0.41200873  0.29702513  1  0  0.303274  0.394426  0  0.935734  0
H  H13  1  0.90214198  0.08799174  0.79702510  1  0  0.30327  0.394387  0  0.935793  0
H  H14  1  0.90214134  0.58799200  0.70297449  1  0  0.303264  0.394367  0  0.935818  0
H  H15  1  0.09785797  0.91200784  0.20297451  1  0  0.303265  0.394415  0  0.935751  0
H  H16  1  0.81829499  0.52361049  0.29160723  1  0  0.29861  0.393673  0  0.939669  0
H  H17  1  0.18170593  0.97638968  0.79160768  1  0  0.298561  0.39351  0  0.93988  0
H  H18  1  0.18170496  0.47638909  0.70839238  1  0  0.298554  0.39351  0  0.939881  0
H  H19  1  0.81829407  0.02361105  0.20839241  1  0  0.298606  0.393667  0  0.939677  0
H  H20  1  0.17505586  0.60639681  0.45697311  1  0  0.331718  0.294035  0  0.931808  0
H  H21  1  0.82494411  0.89360396  0.95697378  1  0  0.331748  0.294086  0  0.931723  0
H  H22  1  0.82494198  0.39360276  0.54302651  1  0  0.331716  0.294036  0  0.931806  0
H  H23  1  0.17505801  0.10639677  0.04302631  1  0  0.33172  0.294037  0  0.931803  0
H  H24  1  0.66001166  0.99405327  0.45837123  1  0  0.11429  0.145085  0  1.028158  0
H  H25  1  0.33999037  0.50594635  0.95837084  1  0  0.114285  0.145091  0  1.028161  0
H  H26  1  0.33999042  0.00594631  0.54162887  1  0  0.114283  0.145091  0  1.028159  0
H  H27  1  0.66000530  0.49405207  0.04162974  1  0  0.114277  0.145083  0  1.028183  0
H  H28  1  0.28023167  0.92135595  0.30754418  1  0  0.120984  0.147219  0  0.994587  0
H  H29  1  0.71976915  0.57864428  0.80754421  1  0  0.120987  0.147203  0  0.994608  0
H  H30  1  0.71976828  0.07864363  0.69245591  1  0  0.120991  0.147216  0  0.994629  0
H  H31  1  0.28023297  0.42135646  0.19245541  1  0  0.120956  0.147151  0  0.994664  0
C  C32  1  0.80433269  0.72977084  0.52804292  1  0  0.237796  0.600595  0  4.186731  0
C  C33  1  0.19566984  0.77023067  0.02804282  1  0  0.23777  0.60053  0  4.186806  0
C  C34  1  0.19566943  0.27022989  0.47195718  1  0  0.237809  0.600578  0  4.186723  0
C  C35  1  0.80433011  0.22976891  0.97195776  1  0  0.237748  0.600473  0  4.186772  0
C  C36  1  0.90864185  0.79096902  0.46395427  1  0  0.123506  0.130556  0  3.938567  0
C  C37  1  0.09135803  0.70903063  0.96395457  1  0  0.123529  0.130599  0  3.938515  0
C  C38  1  0.09135593  0.20902941  0.53604535  1  0  0.123487  0.130545  0  3.938667  0
C  C39  1  0.90864193  0.29096895  0.03604601  1  0  0.12351  0.130615  0  3.938581  0
C  C40  1  0.82342238  0.92596569  0.43581080  1  0  -0.092211  -0.280272  0  3.883062  0
C  C41  1  0.17657983  0.57403500  0.93581050  1  0  -0.092224  -0.28035  0  3.883092  0
C  C42  1  0.17657757  0.07403389  0.56418930  1  0  -0.092224  -0.28033  0  3.883186  0
C  C43  1  0.82341372  0.42596342  0.06419007  1  0  -0.092183  -0.280284  0  3.88313  0
C  C44  1  0.96047396  0.98277786  0.37884657  1  0  0.119822  0.423363  0  4.090636  0
C  C45  1  0.03952857  0.51722262  0.87884677  1  0  0.1198  0.423386  0  4.090662  0
C  C46  1  0.03952811  0.01722172  0.62115304  1  0  0.11984  0.423374  0  4.090588  0
C  C47  1  0.96047138  0.48277695  0.12115333  1  0  0.119815  0.423358  0  4.090663  0
C  C48  1  0.46032077  0.64022721  0.35670957  1  0  0.22452  0.554772  0  4.236411  0
C  C49  1  0.53968189  0.85977320  0.85671079  1  0  0.224535  0.554794  0  4.236394  0
C  C50  1  0.53967918  0.35977237  0.64329005  1  0  0.224526  0.554761  0  4.236398  0
C  C51  1  0.46032023  0.14022753  0.14329027  1  0  0.224547  0.554788  0  4.236319  0
C  C52  1  0.24080846  0.75041947  0.38055755  1  0  0.120394  0.121801  0  3.962715  0
C  C53  1  0.75919194  0.74958102  0.88055815  1  0  0.12039  0.121767  0  3.962751  0
C  C54  1  0.75919144  0.24957895  0.61944206  1  0  0.12038  0.121801  0  3.962706  0
C  C55  1  0.24080594  0.25041971  0.11944194  1  0  0.120407  0.121764  0  3.962778  0
C  C56  1  0.17025095  0.88630228  0.35124814  1  0  -0.083884  -0.25007  0  3.856747  0
C  C57  1  0.82974963  0.61369810  0.85124815  1  0  -0.083878  -0.250027  0  3.856734  0
C  C58  1  0.82974689  0.11369730  0.64875196  1  0  -0.083864  -0.250016  0  3.856674  0
C  C59  1  0.17025032  0.38630147  0.14875242  1  0  -0.083848  -0.249958  0  3.856815  0
N  N60  1  0.11406099  0.70780751  0.43625395  1  0  -0.355212  -0.198765  0  3.711621  0
N  N61  1  0.88594122  0.79219318  0.93625454  1  0  -0.355245  -0.198792  0  3.711603  0
N  N62  1  0.88593897  0.29219206  0.56374567  1  0  -0.355205  -0.198769  0  3.711635  0
N  N63  1  0.11405662  0.20780639  0.06374603  1  0  -0.355233  -0.198772  0  3.711632  0
O  O64  1  0.97423418  0.64271614  0.55728745  1  0  -0.33686  -0.635423  0  2.277525  0
O  O65  1  0.02576602  0.85728432  0.05728746  1  0  -0.336853  -0.635401  0  2.277572  0
O  O66  1  0.02576577  0.35728344  0.44271169  1  0  -0.336871  -0.635391  0  2.277521  0
O  O67  1  0.97423615  0.14271756  0.94271168  1  0  -0.336863  -0.635385  0  2.277537  0
O  O68  1  0.90438484  0.11513184  0.35399826  1  0  -0.341555  -0.589023  0  2.260348  0
O  O69  1  0.09561759  0.38486884  0.85399771  1  0  -0.34155  -0.58907  0  2.260362  0
O  O70  1  0.09561728  0.88486889  0.64600184  1  0  -0.341559  -0.58903  0  2.260358  0
O  O71  1  0.90438448  0.61513074  0.14600190  1  0  -0.341549  -0.589028  0  2.260356  0
O  O72  1  0.52765814  0.53588314  0.39621206  1  0  -0.339479  -0.613957  0  2.278795  0
O  O73  1  0.47234213  0.96411626  0.89621289  1  0  -0.339479  -0.613982  0  2.278818  0
O  O74  1  0.47234181  0.46411644  0.60378803  1  0  -0.339488  -0.613984  0  2.278791  0
O  O75  1  0.52765994  0.03588332  0.10378769  1  0  -0.3395  -0.61397  0  2.278747  0
O  O76  1  0.55919044  0.65950887  0.30053977  1  0  -0.294441  -0.529725  0  2.229875  0
O  O77  1  0.44081043  0.84049132  0.80054101  1  0  -0.294461  -0.529733  0  2.229858  0
O  O78  1  0.44080956  0.34049186  0.69945984  1  0  -0.294443  -0.52969  0  2.229915  0
O  O79  1  0.55919169  0.15950941  0.19946004  1  0  -0.294454  -0.529725  0  2.229891  0
O  O80  1  0.56313193  0.77113629  0.54691906  1  0  -0.330641  -0.60579  0  2.243152  0
O  O81  1  0.43686616  0.72886298  0.04691934  1  0  -0.330609  -0.605722  0  2.243125  0
O  O82  1  0.43687014  0.22886329  0.45308055  1  0  -0.330651  -0.605779  0  2.243101  0
O  O83  1  0.56313172  0.27113776  0.95308027  1  0  -0.33063  -0.605748  0  2.243139  0
O  O84  1  0.37291210  0.26383006  0.31100573  1  0  -0.601979  -0.841595  0  2.128012  0
O  O85  1  0.62708634  0.23617046  0.81100588  1  0  -0.601973  -0.84162  0  2.127968  0
O  O86  1  0.62708790  0.73617067  0.68899437  1  0  -0.601981  -0.84161  0  2.127993  0
O  O87  1  0.37291366  0.76383027  0.18899421  1  0  -0.601983  -0.841635  0  2.127984  0
O  O88  1  0.89113799  0.41864757  0.29980192  1  0  -0.620637  -0.834571  0  2.092498  0
O  O89  1  0.10886273  0.08135522  0.79980213  1  0  -0.620591  -0.834373  0  2.092605  0
O  O90  1  0.10885999  0.58135547  0.70019769  1  0  -0.620567  -0.834336  0  2.092601  0
O  O91  1  0.89113948  0.91864782  0.20019748  1  0  -0.620631  -0.834545  0  2.0925  0
