# generated using pymatgen
data_Zn4H4C24S4Br2Cl2O13
_symmetry_space_group_name_H-M   'P 1'
_cell_length_a   19.69569118
_cell_length_b   19.73289480
_cell_length_c   33.40733828
_cell_angle_alpha   78.97843404
_cell_angle_beta   79.08423817
_cell_angle_gamma   63.86495411
_symmetry_Int_Tables_number   1
_chemical_formula_structural   Zn4H4C24S4Br2Cl2O13
_chemical_formula_sum   'Zn16 H16 C96 S16 Br8 Cl8 O52'
_cell_volume   11359.61911605
_cell_formula_units_Z   4
loop_
 _symmetry_equiv_pos_site_id
 _symmetry_equiv_pos_as_xyz
  1  'x, y, z'
loop_
 _atom_site_type_symbol
 _atom_site_label
 _atom_site_symmetry_multiplicity
 _atom_site_fract_x
 _atom_site_fract_y
 _atom_site_fract_z
 _atom_site_occupancy
 _atom_site_pbe_bader_charge
 _atom_site_pbe_bader_spin_density
 _atom_site_pbe_cm5_charge
 _atom_site_pbe_ddec_charge
 _atom_site_pbe_ddec_spin_density
 _atom_site_pbe_ddec_sum_bond_order
 _atom_site_pbe_magmom
Zn  Zn0  1  0.05569973  0.40027104  0.47797611  1  1.319003  0  0.67311  0.976292  0  2.319265  0
Zn  Zn1  1  0.98586187  0.48419872  0.56026056  1  1.315631  0  0.674677  0.971261  0  2.366516  0
Zn  Zn2  1  0.05775350  0.56205958  0.48182030  1  1.321619  0  0.674379  0.971672  0  2.373632  0
Zn  Zn3  1  0.90014522  0.55482832  0.48029351  1  1.32048  0  0.674049  0.970221  0  2.379098  0
Zn  Zn4  1  0.69525416  0.34944337  0.27181859  1  1.319064  0  0.673492  0.974568  0  2.332468  0
Zn  Zn5  1  0.68841202  0.19050950  0.26605027  1  1.310189  0  0.672749  0.967952  0  2.354422  0
Zn  Zn6  1  0.77009826  0.26559151  0.19010757  1  1.319459  0  0.674677  0.97257  0  2.372865  0
Zn  Zn7  1  0.84735557  0.19301706  0.27212896  1  1.316059  0  0.673613  0.964625  0  2.392499  0
Zn  Zn8  1  0.26609902  0.76636285  0.68949640  1  1.309714  0  0.672104  0.964483  0  2.35696  0
Zn  Zn9  1  0.34894787  0.69767665  0.77181031  1  1.317649  0  0.674151  0.971275  0  2.358291  0
Zn  Zn10  1  0.19175182  0.84881065  0.77134898  1  1.317509  0  0.673595  0.971795  0  2.364937  0
Zn  Zn11  1  0.19283390  0.68753896  0.76805244  1  1.321418  0  0.674641  0.972182  0  2.371651  0
Zn  Zn12  1  0.56037611  0.06048798  0.98398409  1  1.311374  0  0.673302  0.968399  0  2.35256  0
Zn  Zn13  1  0.40134683  0.05453046  0.97751332  1  1.317956  0  0.672862  0.965761  0  2.353581  0
Zn  Zn14  1  0.55691369  0.90140258  0.97899317  1  1.319957  0  0.673855  0.969304  0  2.380005  0
Zn  Zn15  1  0.48218690  0.98174791  0.05996650  1  1.318699  0  0.673595  0.967  0  2.380299  0
H  H16  1  0.75058113  0.44826981  0.34889402  1  0.156258  0  0.11403  0.136108  0  0.992265  0
H  H17  1  0.00003767  0.30203187  0.40074144  1  0.150388  0  0.11396  0.135447  0  0.992221  0
H  H18  1  0.20191399  0.69985500  0.60151719  1  0.113872  0  0.112991  0.134386  0  0.994099  0
H  H19  1  0.04920672  0.55147677  0.64783980  1  0.149066  0  0.113598  0.135105  0  0.995192  0
H  H20  1  0.46372758  0.23984175  0.34116640  1  0.142105  0  0.122377  0.148261  0  0.968189  0
H  H21  1  0.47991773  0.70284899  0.60100066  1  0.098049  0  0.122077  0.147696  0  0.968919  0
H  H22  1  0.20376700  0.97915228  0.60102806  1  0.151171  0  0.121877  0.14739  0  0.968829  0
H  H23  1  0.94654246  0.97024684  0.34754474  1  0.138069  0  0.122098  0.147337  0  0.967957  0
H  H24  1  0.64762787  0.14875072  0.04966292  1  0.120973  0  0.113669  0.135328  0  0.993135  0
H  H25  1  0.60205604  0.10115177  0.20043411  1  0.116929  0  0.114  0.135782  0  0.992539  0
H  H26  1  0.54659777  0.77009499  0.14869086  1  0.129364  0  0.122638  0.148382  0  0.969148  0
H  H27  1  0.16141369  0.14262929  0.04011520  1  0.125212  0  0.122216  0.148011  0  0.968074  0
H  H28  1  0.30238095  0.99988761  0.90113663  1  0.137235  0  0.113084  0.134427  0  0.994204  0
H  H29  1  0.44658584  0.75136677  0.84899735  1  0.119944  0  0.113888  0.135688  0  0.99373  0
H  H30  1  0.30086084  0.28092603  0.90196373  1  0.118902  0  0.122295  0.148354  0  0.968287  0
H  H31  1  0.78744978  0.01111334  0.90833322  1  0.129172  0  0.12217  0.147968  0  0.967485  0
C  C32  1  0.06188943  0.31650578  0.56158303  1  1.602562  0  0.215015  0.621247  0  4.210163  0
C  C33  1  0.07016309  0.57184695  0.56754659  1  1.59491  0  0.229538  0.616088  0  4.151968  0
C  C34  1  0.18337821  0.43940320  0.43844223  1  1.596474  0  0.215922  0.622821  0  4.206465  0
C  C35  1  0.93566510  0.68436785  0.43871208  1  1.596007  0  0.215379  0.620937  0  4.213401  0
C  C36  1  0.92921843  0.43195392  0.43132060  1  1.591005  0  0.231158  0.618475  0  4.151862  0
C  C37  1  0.81748070  0.56101415  0.56318082  1  1.576421  0  0.215089  0.618471  0  4.212398  0
C  C38  1  0.56586038  0.31123370  0.31128432  1  1.544519  0  0.21934  0.615092  0  4.210005  0
C  C39  1  0.68279737  0.18098957  0.17983368  1  1.583469  0  0.230574  0.619601  0  4.149107  0
C  C40  1  0.69009062  0.43304459  0.18842774  1  1.623983  0  0.215321  0.621535  0  4.209695  0
C  C41  1  0.93584946  0.18708592  0.18983819  1  1.598151  0  0.215101  0.61967  0  4.212388  0
C  C42  1  0.82060857  0.31750987  0.31917919  1  1.584784  0  0.230498  0.618268  0  4.151494  0
C  C43  1  0.80985561  0.06540019  0.31101535  1  1.583737  0  0.217674  0.608849  0  4.218122  0
C  C44  1  0.43319517  0.68966726  0.68801014  1  1.55641  0  0.218424  0.611573  0  4.214611  0
C  C45  1  0.31583612  0.82251214  0.81915878  1  1.581652  0  0.230612  0.618263  0  4.148685  0
C  C46  1  0.18818959  0.93336664  0.68788551  1  1.571696  0  0.218775  0.612362  0  4.214681  0
C  C47  1  0.06573067  0.80914298  0.81133581  1  1.586146  0  0.215253  0.618856  0  4.212382  0
C  C48  1  0.18107910  0.67921628  0.68187328  1  1.574455  0  0.230141  0.617268  0  4.152187  0
C  C49  1  0.31511867  0.56624270  0.81196840  1  1.575114  0  0.21516  0.618695  0  4.210275  0
C  C50  1  0.43795740  0.18369065  0.93864276  1  1.545506  0  0.218835  0.61239  0  4.211742  0
C  C51  1  0.43310583  0.92865463  0.93097703  1  1.570178  0  0.229958  0.618939  0  4.15263  0
C  C52  1  0.68462131  0.94032061  0.93918592  1  1.574561  0  0.219029  0.609856  0  4.217882  0
C  C53  1  0.56131073  0.81558309  0.06191938  1  1.568655  0  0.218738  0.6111  0  4.218481  0
C  C54  1  0.56793167  0.06792178  0.07024823  1  1.57892  0  0.229794  0.617476  0  4.15096  0
C  C55  1  0.31501990  0.06138500  0.06025901  1  1.568472  0  0.218908  0.611918  0  4.217312  0
C  C56  1  0.89873607  0.40573931  0.40219194  1  0.029167  0  -0.011636  -0.069864  0  3.911638  0
C  C57  1  0.85169743  0.34437611  0.34763855  1  -0.005015  0  -0.01131  -0.069985  0  3.912685  0
C  C58  1  0.82740274  0.44741117  0.38700364  1  0.033071  0  0.023491  0.137553  0  4.007761  0
C  C59  1  0.92331480  0.30300410  0.36253799  1  0.086224  0  0.023022  0.138163  0  4.006114  0
C  C60  1  0.80560263  0.41613025  0.36041274  1  0.022911  0  -0.083561  -0.148981  0  3.950291  0
C  C61  1  0.94497693  0.33414801  0.38925680  1  0.024882  0  -0.083688  -0.148634  0  3.949516  0
C  C62  1  0.10017392  0.60098996  0.59539864  1  0.03216  0  -0.010482  -0.06826  0  3.912078  0
C  C63  1  0.15093201  0.65035114  0.65395235  1  0.01757  0  -0.011344  -0.068941  0  3.909854  0
C  C64  1  0.14401872  0.64355378  0.58236559  1  0.063074  0  0.022829  0.137954  0  4.01151  0
C  C65  1  0.10705245  0.60781218  0.66698466  1  0.062065  0  0.023002  0.137907  0  4.008197  0
C  C66  1  0.16816747  0.66710422  0.61160439  1  0.011632  0  -0.083661  -0.14953  0  3.950523  0
C  C67  1  0.08290197  0.58428159  0.63774149  1  0.040145  0  -0.083157  -0.147959  0  3.946734  0
C  C68  1  0.30466490  0.45449885  0.40094034  1  0.028701  0  -0.022944  0.060543  0  4.001918  0
C  C69  1  0.44652947  0.29656924  0.34906461  1  0.070026  0  -0.087158  -0.130887  0  3.955842  0
C  C70  1  0.25853334  0.41564783  0.41393640  1  -0.163287  0  -0.030116  -0.174311  0  3.948763  0
C  C71  1  0.49113760  0.33660992  0.33642771  1  -0.17236  0  -0.022763  -0.116945  0  3.972382  0
C  C72  1  0.37838164  0.33944403  0.37269059  1  -0.190721  0  -0.020434  0.00354  0  4.066123  0
C  C73  1  0.37288293  0.41124165  0.37744797  1  -0.155785  0  -0.030039  -0.072247  0  4.092715  0
C  C74  1  0.72575574  0.57526290  0.63104704  1  0.013598  0  -0.022934  0.059997  0  4.005944  0
C  C75  1  0.52428120  0.67365881  0.62121558  1  0.027203  0  -0.087306  -0.131917  0  3.957958  0
C  C76  1  0.74332697  0.58472161  0.58860783  1  -0.169315  0  -0.030276  -0.171644  0  3.949512  0
C  C77  1  0.50849654  0.66380959  0.66355425  1  -0.093146  0  -0.022875  -0.11525  0  3.974432  0
C  C78  1  0.60366952  0.64131529  0.60922076  1  -0.187547  0  -0.01977  0.003689  0  4.06651  0
C  C79  1  0.64627523  0.60750446  0.64286160  1  -0.11366  0  -0.030313  -0.072152  0  4.09362  0
C  C80  1  0.07624091  0.22526341  0.62965322  1  -0.000143  0  -0.023054  0.060516  0  4.001424  0
C  C81  1  0.17436988  0.02381321  0.62092678  1  -0.006107  0  -0.08742  -0.131646  0  3.958691  0
C  C82  1  0.08602040  0.24238062  0.58714400  1  -0.133826  0  -0.030296  -0.173421  0  3.947179  0
C  C83  1  0.16356305  0.00850880  0.66326462  1  -0.102693  0  -0.023348  -0.117043  0  3.977025  0
C  C84  1  0.14243622  0.10299669  0.60852644  1  -0.229417  0  -0.020541  0.003766  0  4.06848  0
C  C85  1  0.10818131  0.14597930  0.64188514  1  -0.102093  0  -0.029607  -0.072624  0  4.093602  0
C  C86  1  0.84066543  0.80126790  0.39712661  1  -0.003623  0  -0.022935  0.06094  0  4.00487  0
C  C87  1  0.90228743  0.94975199  0.35220796  1  0.07588  0  -0.085566  -0.128178  0  3.952046  0
C  C88  1  0.90913533  0.75879491  0.41366297  1  -0.096104  0  -0.030246  -0.174186  0  3.954906  0
C  C89  1  0.83371723  0.99077429  0.33604224  1  -0.206486  0  -0.023376  -0.115468  0  3.975966  0
C  C90  1  0.90501785  0.88044139  0.37455985  1  -0.174686  0  -0.019901  0.004042  0  4.067066  0
C  C91  1  0.83820438  0.87058754  0.37483062  1  -0.15441  0  -0.029729  -0.072765  0  4.095864  0
C  C92  1  0.65437233  0.15376835  0.15020782  1  0.003485  0  -0.011207  -0.069691  0  3.910862  0
C  C93  1  0.59567477  0.09579775  0.09988262  1  0.00361  0  -0.010833  -0.069453  0  3.912428  0
C  C94  1  0.66693247  0.16737576  0.10692590  1  0.08284  0  0.023459  0.138589  0  4.010812  0
C  C95  1  0.58269493  0.08261535  0.14316938  1  0.079968  0  0.023659  0.138348  0  4.011968  0
C  C96  1  0.63775239  0.13829923  0.08296247  1  0.04007  0  -0.083707  -0.148974  0  3.949921  0
C  C97  1  0.61207856  0.11148350  0.16713586  1  0.042207  0  -0.083768  -0.149601  0  3.950399  0
C  C98  1  0.67429952  0.52390119  0.12025627  1  -0.022119  0  -0.022894  0.059771  0  4.00319  0
C  C99  1  0.57588794  0.72534668  0.12884247  1  0.072352  0  -0.086009  -0.13038  0  3.955656  0
C  C100  1  0.66506671  0.50699925  0.16278747  1  -0.162646  0  -0.030482  -0.174431  0  3.951603  0
C  C101  1  0.58637898  0.74048013  0.08647960  1  -0.160842  0  -0.023041  -0.115362  0  3.974671  0
C  C102  1  0.60807095  0.64621828  0.14129704  1  -0.174442  0  -0.019362  0.004691  0  4.06737  0
C  C103  1  0.64206601  0.60314352  0.10795547  1  -0.116294  0  -0.030048  -0.072267  0  4.09366  0
C  C104  1  0.08337819  0.12317912  0.17808687  1  0.005433  0  -0.023369  0.059677  0  4.006229  0
C  C105  1  0.16948776  0.12569349  0.07242401  1  0.02038  0  -0.086928  -0.131222  0  3.959254  0
C  C106  1  0.01103460  0.16218018  0.16552810  1  -0.164711  0  -0.030021  -0.173356  0  3.955479  0
C  C107  1  0.24079051  0.08653225  0.08570842  1  -0.132021  0  -0.022849  -0.115492  0  3.976644  0
C  C108  1  0.11183995  0.13918160  0.10613009  1  -0.179297  0  -0.020406  0.002808  0  4.069777  0
C  C109  1  0.14091953  0.10992831  0.14428677  1  -0.161242  0  -0.029519  -0.0712  0  4.09274  0
C  C110  1  0.34295281  0.85281680  0.84789735  1  -0.011893  0  -0.011159  -0.067915  0  3.911834  0
C  C111  1  0.40589607  0.89836140  0.90230271  1  -0.00342  0  -0.011427  -0.070694  0  3.913982  0
C  C112  1  0.30198383  0.92402428  0.86300367  1  0.068558  0  0.022815  0.136435  0  4.013666  0
C  C113  1  0.44689464  0.82713010  0.88720716  1  0.08861  0  0.023235  0.138236  0  4.010735  0
C  C114  1  0.33399533  0.94501716  0.88958734  1  0.031085  0  -0.08428  -0.149711  0  3.953499  0
C  C115  1  0.41487633  0.80616605  0.86060311  1  0.076985  0  -0.083225  -0.149563  0  3.9482  0
C  C116  1  0.40962783  0.44780820  0.85325204  1  -0.040532  0  -0.023241  0.059084  0  4.005933  0
C  C117  1  0.34573251  0.30054649  0.89748567  1  0.06426  0  -0.087189  -0.132238  0  3.956982  0
C  C118  1  0.34137545  0.49132080  0.83665390  1  -0.098728  0  -0.030048  -0.172248  0  3.949229  0
C  C119  1  0.41412940  0.25853973  0.91372359  1  -0.147245  0  -0.022713  -0.115287  0  3.973678  0
C  C120  1  0.34392984  0.36974214  0.87532796  1  -0.186742  0  -0.020194  0.003721  0  4.066896  0
C  C121  1  0.41123162  0.37855214  0.87527518  1  -0.105483  0  -0.029751  -0.071672  0  4.093534  0
C  C122  1  0.94430285  0.79484318  0.84942807  1  0.068537  0  -0.0233  0.05936  0  4.00595  0
C  C123  1  0.80403605  0.95428147  0.90076500  1  0.036045  0  -0.086398  -0.131017  0  3.956811  0
C  C124  1  0.99084127  0.83311041  0.83598646  1  -0.160082  0  -0.030159  -0.172514  0  3.952314  0
C  C125  1  0.75900901  0.91480716  0.91387641  1  -0.180862  0  -0.022786  -0.115403  0  3.97624  0
C  C126  1  0.87176580  0.91061025  0.87715201  1  -0.161011  0  -0.019603  0.004285  0  4.065881  0
C  C127  1  0.87646094  0.83885256  0.87289920  1  -0.164468  0  -0.029909  -0.072495  0  4.092709  0
S  S128  1  0.29927905  0.32589453  0.39735323  1  0.285892  0  0.089118  0.139211  0  2.727204  0
S  S129  1  0.45113135  0.42610126  0.35303809  1  0.305122  0  0.087349  0.13808  0  2.775269  0
S  S130  1  0.66211805  0.63299847  0.56325757  1  0.288272  0  0.089707  0.139996  0  2.732144  0
S  S131  1  0.58916498  0.61544655  0.68906887  1  0.28933  0  0.08836  0.139209  0  2.781579  0
S  S132  1  0.13463708  0.16089430  0.56230992  1  0.286191  0  0.088176  0.138003  0  2.729735  0
S  S133  1  0.11493910  0.08943051  0.68833733  1  0.286127  0  0.089177  0.140791  0  2.778003  0
S  S134  1  0.97044688  0.80395293  0.40173716  1  0.28776  0  0.090219  0.141344  0  2.733662  0
S  S135  1  0.77223741  0.94610279  0.34771426  1  0.284246  0  0.087274  0.137332  0  2.776246  0
S  S136  1  0.61638876  0.58852100  0.18756987  1  0.285933  0  0.089702  0.140336  0  2.728994  0
S  S137  1  0.63492202  0.65950820  0.06145472  1  0.290518  0  0.090054  0.140986  0  2.776196  0
S  S138  1  0.01376157  0.18285260  0.11226631  1  0.305278  0  0.090287  0.141164  0  2.736578  0
S  S139  1  0.23872733  0.06593174  0.13884278  1  0.315337  0  0.088303  0.138941  0  2.78012  0
S  S140  1  0.27924265  0.44701605  0.84813085  1  0.288843  0  0.089974  0.140626  0  2.733098  0
S  S141  1  0.47652715  0.30222794  0.90233559  1  0.286412  0  0.087415  0.138014  0  2.778916  0
S  S142  1  0.95103647  0.92324975  0.85204806  1  0.283272  0  0.090082  0.140618  0  2.732032  0
S  S143  1  0.79797814  0.82498508  0.89777406  1  0.302864  0  0.089593  0.141083  0  2.778326  0
Br  Br144  1  0.28461219  0.55198640  0.41167149  1  0.010629  0  0.045286  -0.008855  0  1.409176  0
Br  Br145  1  0.79458497  0.52660804  0.67030123  1  0.006446  0  0.044639  -0.009623  0  1.404775  0
Br  Br146  1  0.02759388  0.29425537  0.66864961  1  0.006565  0  0.044842  -0.009278  0  1.408789  0
Br  Br147  1  0.75880878  0.77461493  0.40166208  1  0.010532  0  0.045432  -0.008994  0  1.407083  0
Br  Br148  1  0.72205692  0.45470851  0.08132901  1  0.018853  0  0.046183  -0.007725  0  1.407726  0
Br  Br149  1  0.10757635  0.09048645  0.23223028  1  0.012541  0  0.045064  -0.008922  0  1.404049  0
Br  Br150  1  0.49253499  0.47282642  0.84883630  1  0.011947  0  0.046498  -0.006936  0  1.394184  0
Br  Br151  1  0.96363588  0.69739675  0.83903418  1  0.009345  0  0.04607  -0.007875  0  1.404912  0
Cl  Cl152  1  0.76314898  0.53677722  0.39881195  1  -0.175105  0  -0.009758  -0.070171  0  1.491122  0
Cl  Cl153  1  0.98849315  0.21450355  0.34982930  1  -0.174894  0  -0.011608  -0.072538  0  1.488984  0
Cl  Cl154  1  0.17135967  0.66904381  0.53168154  1  -0.173366  0  -0.010996  -0.07184  0  1.488318  0
Cl  Cl155  1  0.07976105  0.58212023  0.71763604  1  -0.171375  0  -0.009483  -0.07012  0  1.489779  0
Cl  Cl156  1  0.71633982  0.21917275  0.08050347  1  -0.167751  0  -0.009536  -0.07014  0  1.489348  0
Cl  Cl157  1  0.53173351  0.03237619  0.16964219  1  -0.170616  0  -0.009632  -0.06959  0  1.478876  0
Cl  Cl158  1  0.21308949  0.98924937  0.85068321  1  -0.174372  0  -0.009071  -0.0688  0  1.47828  0
Cl  Cl159  1  0.53597581  0.76206502  0.89928829  1  -0.170071  0  -0.006543  -0.065825  0  1.47932  0
O  O160  1  0.00075455  0.49892343  0.49989552  1  -1.227857  0  -0.570385  -1.030944  0  2.51789  0
O  O161  1  0.07787637  0.31476348  0.52264030  1  -1.175013  0  -0.320059  -0.548634  0  2.31809  0
O  O162  1  0.03481766  0.53112108  0.58516396  1  -1.167201  0  -0.31203  -0.538964  0  2.32969  0
O  O163  1  0.15380130  0.50585818  0.44938517  1  -1.168731  0  -0.315679  -0.540165  0  2.391275  0
O  O164  1  0.02752425  0.37547320  0.58020718  1  -1.177946  0  -0.315691  -0.540192  0  2.388008  0
O  O165  1  0.15439150  0.39076563  0.44647160  1  -1.153334  0  -0.321055  -0.54947  0  2.31417  0
O  O166  1  0.08172768  0.58973183  0.52911560  1  -1.1717  0  -0.308565  -0.538958  0  2.414724  0
O  O167  1  0.00346537  0.65803875  0.44835041  1  -1.160615  0  -0.319565  -0.543427  0  2.329956  0
O  O168  1  0.88655582  0.49579673  0.44407169  1  -1.167559  0  -0.310003  -0.539688  0  2.422971  0
O  O169  1  0.88980880  0.65267997  0.44871281  1  -1.182882  0  -0.315169  -0.540782  0  2.387355  0
O  O170  1  0.99584362  0.38743822  0.44097542  1  -1.174095  0  -0.312347  -0.541337  0  2.317074  0
O  O171  1  0.87714987  0.52677049  0.58142349  1  -1.168392  0  -0.315124  -0.541257  0  2.379908  0
O  O172  1  0.81488390  0.57759444  0.52429971  1  -1.139272  0  -0.318896  -0.541859  0  2.333586  0
O  O173  1  0.74898418  0.25044143  0.25029574  1  -1.225611  0  -0.570268  -1.031062  0  2.521762  0
O  O174  1  0.59719947  0.35778570  0.30341853  1  -1.155197  0  -0.31965  -0.548047  0  2.325259  0
O  O175  1  0.66254392  0.16629605  0.21796097  1  -1.16485  0  -0.312516  -0.54081  0  2.324221  0
O  O176  1  0.72689106  0.37404189  0.16997400  1  -1.176153  0  -0.315338  -0.540029  0  2.390288  0
O  O177  1  0.59246744  0.24534596  0.29965485  1  -1.17476  0  -0.31627  -0.53973  0  2.312684  0
O  O178  1  0.67254267  0.43488612  0.22731820  1  -1.173585  0  -0.320307  -0.547848  0  2.319819  0
O  O179  1  0.72457070  0.21588919  0.16495787  1  -1.169594  0  -0.309616  -0.541564  0  2.416761  0
O  O180  1  0.87877244  0.22430287  0.16932851  1  -1.1636  0  -0.3189  -0.543267  0  2.329742  0
O  O181  1  0.86118372  0.25158644  0.30848855  1  -1.167643  0  -0.310193  -0.54065  0  2.425655  0
O  O182  1  0.93349374  0.16978667  0.22865378  1  -1.159765  0  -0.315095  -0.539128  0  2.386025  0
O  O183  1  0.75537471  0.36338554  0.30810775  1  -1.171667  0  -0.311956  -0.540422  0  2.318548  0
O  O184  1  0.74364062  0.09351318  0.29916426  1  -1.176466  0  -0.319824  -0.5474  0  2.329228  0
O  O185  1  0.85746128  0.09525382  0.30338354  1  -1.165016  0  -0.314256  -0.532546  0  2.322463  0
O  O186  1  0.25022577  0.75033136  0.74982811  1  -1.225108  0  -0.570316  -1.03121  0  2.522405  0
O  O187  1  0.37508958  0.72406577  0.66836048  1  -1.16359  0  -0.315936  -0.538607  0  2.308024  0
O  O188  1  0.36232813  0.75786768  0.80779203  1  -1.165668  0  -0.312173  -0.539496  0  2.327925  0
O  O189  1  0.17092888  0.93344326  0.72679937  1  -1.162123  0  -0.318374  -0.543253  0  2.336214  0
O  O190  1  0.43325625  0.67509087  0.72703138  1  -1.163775  0  -0.318978  -0.545107  0  2.337268  0
O  O191  1  0.22423149  0.87532494  0.66843925  1  -1.160511  0  -0.316289  -0.539873  0  2.308728  0
O  O192  1  0.24964100  0.86270568  0.80851004  1  -1.168898  0  -0.309448  -0.541638  0  2.413063  0
O  O193  1  0.09354769  0.85873445  0.80251901  1  -1.16544  0  -0.319608  -0.544109  0  2.328864  0
O  O194  1  0.16846359  0.66194576  0.72028465  1  -1.15472  0  -0.309535  -0.53971  0  2.418033  0
O  O195  1  0.09646801  0.74215946  0.80101321  1  -1.166159  0  -0.314664  -0.539182  0  2.384373  0
O  O196  1  0.21748176  0.71903611  0.66440257  1  -1.177017  0  -0.313388  -0.541802  0  2.327905  0
O  O197  1  0.35988673  0.59927217  0.80342337  1  -1.155164  0  -0.314841  -0.541259  0  2.376416  0
O  O198  1  0.24819960  0.59165382  0.80122769  1  -1.166524  0  -0.318911  -0.542302  0  2.332081  0
O  O199  1  0.49972907  0.00057069  0.99980503  1  -1.22673  0  -0.570277  -1.030721  0  2.524613  0
O  O200  1  0.50414890  0.15619886  0.95046760  1  -1.174453  0  -0.320057  -0.547634  0  2.33359  0
O  O201  1  0.38808044  0.99465344  0.94112222  1  -1.170634  0  -0.313329  -0.542953  0  2.328006  0
O  O202  1  0.65426860  0.89293216  0.94757773  1  -1.166695  0  -0.318336  -0.541892  0  2.342833  0
O  O203  1  0.39094208  0.15309860  0.94618908  1  -1.163338  0  -0.316157  -0.538693  0  2.308714  0
O  O204  1  0.65714525  0.00654024  0.95049596  1  -1.167739  0  -0.316214  -0.538301  0  2.306348  0
O  O205  1  0.49807879  0.88692718  0.94284725  1  -1.163667  0  -0.309105  -0.540127  0  2.421266  0
O  O206  1  0.57963576  0.81597301  0.02303494  1  -1.170926  0  -0.318193  -0.54315  0  2.33863  0
O  O207  1  0.52997248  0.02908540  0.08516954  1  -1.165271  0  -0.310016  -0.54184  0  2.420822  0
O  O208  1  0.52371209  0.87342800  0.08139112  1  -1.170857  0  -0.315258  -0.536856  0  2.315496  0
O  O209  1  0.58514028  0.08573484  0.03207818  1  -1.166573  0  -0.312489  -0.540303  0  2.32457  0
O  O210  1  0.31489005  0.07783377  0.02139165  1  -1.156779  0  -0.316127  -0.539502  0  2.308334  0
O  O211  1  0.37329055  0.02489676  0.07982437  1  -1.172339  0  -0.319355  -0.544178  0  2.343504  0
