# generated using pymatgen
data_ZnH12C9NO4
_symmetry_space_group_name_H-M   'P 1'
_cell_length_a   8.16033947
_cell_length_b   8.96844600
_cell_length_c   11.06464919
_cell_angle_alpha   97.36994671
_cell_angle_beta   99.78057105
_cell_angle_gamma   91.03392577
_symmetry_Int_Tables_number   1
_chemical_formula_structural   ZnH12C9NO4
_chemical_formula_sum   'Zn2 H24 C18 N2 O8'
_cell_volume   790.75269066
_cell_formula_units_Z   2
loop_
 _symmetry_equiv_pos_site_id
 _symmetry_equiv_pos_as_xyz
  1  'x, y, z'
loop_
 _atom_site_type_symbol
 _atom_site_label
 _atom_site_symmetry_multiplicity
 _atom_site_fract_x
 _atom_site_fract_y
 _atom_site_fract_z
 _atom_site_occupancy
 _atom_site_pbe_bader_charge
 _atom_site_pbe_bader_spin_density
 _atom_site_pbe_cm5_charge
 _atom_site_pbe_ddec_charge
 _atom_site_pbe_ddec_spin_density
 _atom_site_pbe_ddec_sum_bond_order
 _atom_site_pbe_magmom
Zn  Zn0  1  0.33183143  0.52837085  0.51133940  1  1.299314  0  0.675848  0.821891  0  2.365264  0
Zn  Zn1  1  0.68524298  0.49716834  0.49306354  1  1.294156  0  0.676208  0.82303  0  2.359633  0
H  H2  1  0.66369669  0.45222545  0.11148747  1  0.086904  0  0.100046  0.098961  0  1.035343  0
H  H3  1  0.77729965  0.20196496  0.89886931  1  0.025765  0  0.083461  0.110856  0  1.004063  0
H  H4  1  0.84134147  0.26260847  0.76650253  1  0.063488  0  0.086791  0.123821  0  1.010488  0
H  H5  1  0.99032622  0.25267055  0.90271896  1  0.013637  0  0.084361  0.110018  0  1.01111  0
H  H6  1  0.91938457  0.51892103  0.88591287  1  0.055399  0  0.092703  0.084946  0  1.019885  0
H  H7  1  0.85480368  0.46096430  0.01763333  1  -0.011762  0  0.090626  0.082038  0  1.001115  0
H  H8  1  0.02048078  0.19088033  0.50394523  1  0.055314  0  0.091088  0.129706  0  1.01325  0
H  H9  1  0.80649023  0.19472319  0.43199406  1  0.066234  0  0.090922  0.133115  0  1.056683  0
H  H10  1  0.95654934  0.11343524  0.34614606  1  0.049478  0  0.099071  0.137092  0  0.976863  0
H  H11  1  0.88433796  0.36870595  0.29182744  1  0.07914  0  0.121538  0.113435  0  0.960238  0
H  H12  1  0.10137200  0.36267992  0.35663743  1  0.107939  0  0.110579  0.093257  0  1.030073  0
H  H13  1  0.41019791  0.52729969  0.88388751  1  0.101225  0  0.103603  0.105678  0  1.02944  0
H  H14  1  0.07468023  0.61182236  0.77222312  1  0.06519  0  0.091807  0.128373  0  1.018523  0
H  H15  1  0.25826496  0.69646179  0.73690321  1  0.048194  0  0.093565  0.138658  0  1.034817  0
H  H16  1  0.09742374  0.81090777  0.78283256  1  0.055284  0  0.09952  0.13685  0  0.97715  0
H  H17  1  0.08821259  0.79114479  0.55549494  1  0.102801  0  0.123446  0.114971  0  0.954541  0
H  H18  1  0.90034228  0.71344796  0.59041810  1  0.085325  0  0.109765  0.093797  0  1.036731  0
H  H19  1  0.66072455  0.00626872  0.49044980  1  0.076621  0  0.112358  0.131861  0  0.996887  0
H  H20  1  0.29739730  0.02605074  0.53318212  1  0.093967  0  0.109721  0.125138  0  0.997979  0
H  H21  1  0.23333143  0.73475388  0.19468531  1  0.032411  0  0.086435  0.121416  0  1.004975  0
H  H22  1  0.28919581  0.75490894  0.04874452  1  0.018761  0  0.084737  0.112164  0  1.004588  0
H  H23  1  0.07833690  0.71223797  0.05870077  1  0.008405  0  0.084599  0.109756  0  1.013965  0
H  H24  1  0.21208801  0.48004303  0.97604017  1  0.004145  0  0.091985  0.083207  0  1.003198  0
H  H25  1  0.15538179  0.46135487  0.12088242  1  0.054373  0  0.092979  0.092247  0  0.98988  0
C  C26  1  0.51301654  0.80264448  0.50253119  1  1.551298  0  0.21545  0.637539  0  4.157277  0
C  C27  1  0.41951562  0.06510696  0.51968657  1  -0.015937  0  -0.078801  -0.168543  0  3.892338  0
C  C28  1  0.24034997  0.52216873  0.07534175  1  0.002968  0  -0.164073  -0.133843  0  4.000181  0
C  C29  1  0.20841295  0.69116850  0.09562119  1  -0.025982  0  -0.243099  -0.348567  0  3.947291  0
C  C30  1  0.83040978  0.44436726  0.91598296  1  0.016659  0  -0.163257  -0.129463  0  3.995206  0
C  C31  1  0.86161298  0.28042960  0.86809318  1  -0.074173  0  -0.24425  -0.351095  0  3.946038  0
C  C32  1  0.97423816  0.35429118  0.37548964  1  0.258025  0  -0.06365  -0.043822  0  3.902556  0
C  C33  1  0.93590783  0.20402981  0.41806991  1  -0.085946  0  -0.242348  -0.381834  0  3.908389  0
C  C34  1  0.03466037  0.70035052  0.59696080  1  0.254718  0  -0.063309  -0.044021  0  3.907437  0
C  C35  1  0.12316666  0.70400928  0.73036252  1  -0.075319  0  -0.238687  -0.378446  0  3.901943  0
C  C36  1  0.44297030  0.22934414  0.51664582  1  1.58034  0  0.214058  0.630873  0  4.1645  0
C  C37  1  0.62156541  0.52012349  0.73672471  1  1.531894  0  0.210574  0.579144  0  4.158978  0
C  C38  1  0.45717748  0.47785055  0.26249149  1  1.538846  0  0.211629  0.584122  0  4.154177  0
C  C39  1  0.65739150  0.48893744  0.86816221  1  -0.016755  0  -0.008241  -0.013677  0  3.850982  0
C  C40  1  0.41602437  0.48823001  0.12697747  1  -0.043327  0  -0.011475  -0.020288  0  3.856761  0
C  C41  1  0.52993828  0.49783508  0.93353870  1  -0.05104  0  -0.086418  -0.103769  0  3.995605  0
C  C42  1  0.54244119  0.47605851  0.06072794  1  -0.032098  0  -0.086029  -0.098668  0  4.001936  0
C  C43  1  0.53858714  0.96729644  0.50385841  1  -0.022343  0  -0.07974  -0.171856  0  3.886879  0
N  N44  1  0.94453361  0.48143756  0.46557188  1  -0.415893  0  -0.117447  0.01018  0  3.294505  0
N  N45  1  0.06780530  0.56355463  0.51822395  1  -0.435288  0  -0.116071  0.010081  0  3.288547  0
O  O46  1  0.36943298  0.75269534  0.51302600  1  -1.164743  0  -0.316565  -0.550586  0  2.335651  0
O  O47  1  0.58521337  0.28124194  0.50698234  1  -1.18164  0  -0.310311  -0.554306  0  2.340154  0
O  O48  1  0.63908758  0.72393282  0.48968062  1  -1.173364  0  -0.316218  -0.556709  0  2.313811  0
O  O49  1  0.31280611  0.30548177  0.52321144  1  -1.160053  0  -0.31436  -0.54182  0  2.325354  0
O  O50  1  0.47318364  0.54669207  0.68989673  1  -1.188797  0  -0.318581  -0.566064  0  2.385339  0
O  O51  1  0.60852773  0.45758482  0.30878150  1  -1.178153  0  -0.323867  -0.556424  0  2.372799  0
O  O52  1  0.74558651  0.51695166  0.67896100  1  -1.155712  0  -0.318021  -0.540397  0  2.338617  0
O  O53  1  0.33791542  0.49344886  0.32386277  1  -1.169893  0  -0.314655  -0.554022  0  2.355917  0
