# generated using pymatgen
data_LaH6C7(NO4)2
_symmetry_space_group_name_H-M   'P 1'
_cell_length_a   7.05250359
_cell_length_b   9.91982576
_cell_length_c   15.15171313
_cell_angle_alpha   90.00006183
_cell_angle_beta   89.99986596
_cell_angle_gamma   80.48109087
_symmetry_Int_Tables_number   1
_chemical_formula_structural   LaH6C7(NO4)2
_chemical_formula_sum   'La4 H24 C28 N8 O32'
_cell_volume   1045.41272640
_cell_formula_units_Z   4
loop_
 _symmetry_equiv_pos_site_id
 _symmetry_equiv_pos_as_xyz
  1  'x, y, z'
loop_
 _atom_site_type_symbol
 _atom_site_label
 _atom_site_symmetry_multiplicity
 _atom_site_fract_x
 _atom_site_fract_y
 _atom_site_fract_z
 _atom_site_occupancy
 _atom_site_pbe_bader_charge
 _atom_site_pbe_bader_spin_density
 _atom_site_pbe_cm5_charge
 _atom_site_pbe_ddec_charge
 _atom_site_pbe_ddec_spin_density
 _atom_site_pbe_ddec_sum_bond_order
 _atom_site_pbe_magmom
La  La0  1  0.80163534  0.83868909  0.13937687  1  2.249355  0  1.401368  1.839885  0  2.34341  0
La  La1  1  0.69836973  0.66131172  0.63937932  1  2.249278  0  1.401384  1.839903  0  2.34348  0
La  La2  1  0.19837566  0.16130981  0.86062052  1  2.24933  0  1.401456  1.840039  0  2.343212  0
La  La3  1  0.30163159  0.33869230  0.36062005  1  2.249345  0  1.401374  1.83988  0  2.343409  0
H  H4  1  0.50694895  0.63336001  0.26883594  1  0.166274  0  0.146663  0.092299  0  0.978079  0
H  H5  1  0.99304533  0.86663768  0.76884080  1  0.166224  0  0.146628  0.09226  0  0.978081  0
H  H6  1  0.49304953  0.36663788  0.73116211  1  0.166235  0  0.146649  0.092285  0  0.978115  0
H  H7  1  0.00693755  0.13336636  0.23116319  1  0.166133  0  0.14664  0.092266  0  0.97811  0
H  H8  1  0.75011288  0.29293052  0.04689210  1  0.144868  0  0.129917  0.151184  0  0.998405  0
H  H9  1  0.74987582  0.20706832  0.54689702  1  0.144967  0  0.129908  0.151138  0  0.998504  0
H  H10  1  0.24986598  0.70706636  0.95310529  1  0.144911  0  0.129902  0.15112  0  0.998493  0
H  H11  1  0.25011367  0.79293776  0.45310499  1  0.144996  0  0.12989  0.151076  0  0.998496  0
H  H12  1  0.63818697  0.90861136  0.33510335  1  0.637301  0  0.294777  0.385204  0  0.948009  0
H  H13  1  0.86180404  0.59138784  0.83510560  1  0.63726  0  0.294817  0.385221  0  0.94794  0
H  H14  1  0.36180560  0.09138142  0.66489140  1  0.637228  0  0.294756  0.385123  0  0.94807  0
H  H15  1  0.13818830  0.40861210  0.16489641  1  0.637318  0  0.294751  0.385135  0  0.948101  0
H  H16  1  0.50793173  0.98348447  0.26197373  1  0.636172  0  0.295923  0.375529  0  0.966743  0
H  H17  1  0.99206588  0.51651725  0.76197519  1  0.636196  0  0.2959  0.375477  0  0.966807  0
H  H18  1  0.49206533  0.01651342  0.73802366  1  0.636158  0  0.295918  0.375475  0  0.966792  0
H  H19  1  0.00792906  0.48348371  0.23802682  1  0.636165  0  0.295909  0.375525  0  0.966751  0
H  H20  1  0.26456402  0.81511860  0.10587030  1  0.66477  0  0.299431  0.401563  0  0.932894  0
H  H21  1  0.23544552  0.68488089  0.60587593  1  0.664887  0  0.299412  0.401596  0  0.932885  0
H  H22  1  0.73545313  0.18487825  0.89412049  1  0.664791  0  0.299423  0.401601  0  0.932873  0
H  H23  1  0.76455721  0.31512313  0.39412805  1  0.664815  0  0.299422  0.401599  0  0.932865  0
H  H24  1  0.19465873  0.66819409  0.09133417  1  0.667746  0  0.294353  0.388968  0  0.954523  0
H  H25  1  0.30534683  0.83180427  0.59133350  1  0.667744  0  0.294374  0.389046  0  0.954407  0
H  H26  1  0.80534660  0.33180481  0.90866454  1  0.667785  0  0.294355  0.389017  0  0.954456  0
H  H27  1  0.69464905  0.16819873  0.40866851  1  0.6678  0  0.2944  0.389083  0  0.954368  0
C  C28  1  0.55629988  0.55789044  0.21794798  1  1.065555  0  0.208887  0.281156  0  3.924248  0
C  C29  1  0.94368959  0.94210995  0.71795215  1  1.065857  0  0.208909  0.2812  0  3.924164  0
C  C30  1  0.44369434  0.44210746  0.78205073  1  1.065619  0  0.208923  0.281138  0  3.924298  0
C  C31  1  0.05629470  0.05789409  0.28205052  1  1.065793  0  0.208888  0.281194  0  3.924227  0
C  C32  1  0.60198554  0.33513562  0.17142796  1  0.489875  0  0.147117  0.163642  0  3.921069  0
C  C33  1  0.89800916  0.16486720  0.67143135  1  0.489362  0  0.147145  0.163639  0  3.921095  0
C  C34  1  0.39800253  0.66486433  0.82857273  1  0.489119  0  0.147074  0.163582  0  3.920892  0
C  C35  1  0.10198199  0.83513785  0.32857066  1  0.489614  0  0.147087  0.1636  0  3.92111  0
C  C36  1  0.69021970  0.37053542  0.09451510  1  0.077112  0  -0.053393  -0.16393  0  3.839573  0
C  C37  1  0.80977334  0.12946275  0.59452068  1  0.077505  0  -0.053441  -0.164031  0  3.839828  0
C  C38  1  0.30976955  0.62945941  0.90548295  1  0.077707  0  -0.053333  -0.163865  0  3.83954  0
C  C39  1  0.19021781  0.87054230  0.40548265  1  0.077199  0  -0.0534  -0.163868  0  3.839573  0
C  C40  1  0.69978061  0.50849245  0.08291101  1  0.490655  0  0.141875  0.151361  0  3.938727  0
C  C41  1  0.80021163  0.99150898  0.58291207  1  0.490423  0  0.141824  0.15143  0  3.938629  0
C  C42  1  0.30021526  0.49150442  0.91709166  1  0.49006  0  0.141841  0.151446  0  3.938555  0
C  C43  1  0.19977503  0.00849710  0.41708861  1  0.490045  0  0.14186  0.151379  0  3.938603  0
C  C44  1  0.77753934  0.56688781  0.00039943  1  1.6179  0  0.223226  0.554454  0  4.230559  0
C  C45  1  0.72246356  0.93311096  0.50040205  1  1.618211  0  0.223254  0.554462  0  4.230612  0
C  C46  1  0.22246694  0.43310701  0.99960060  1  1.618558  0  0.223151  0.554379  0  4.230513  0
C  C47  1  0.27753705  0.06688999  0.49959600  1  1.618112  0  0.223234  0.55442  0  4.230498  0
C  C48  1  0.58498937  0.18787258  0.19098364  1  1.641501  0  0.23809  0.577861  0  4.18686  0
C  C49  1  0.91501048  0.31212630  0.69098808  1  1.641489  0  0.238138  0.578023  0  4.186748  0
C  C50  1  0.41500533  0.81212327  0.80901243  1  1.641534  0  0.238084  0.577818  0  4.186857  0
C  C51  1  0.08498398  0.68787671  0.30901129  1  1.641495  0  0.238115  0.577935  0  4.186857  0
C  C52  1  0.41336677  0.97972252  0.02591405  1  1.573854  0  0.22044  0.482111  0  4.216461  0
C  C53  1  0.08665743  0.52027535  0.52592353  1  1.596542  0  0.22051  0.48237  0  4.216249  0
C  C54  1  0.58665700  0.02027024  0.97407146  1  1.596454  0  0.220562  0.482498  0  4.216277  0
C  C55  1  0.91336775  0.47972354  0.47408178  1  1.572782  0  0.22055  0.482342  0  4.216225  0
N  N56  1  0.64217591  0.60059411  0.14699087  1  -1.231544  0  -0.338781  -0.337667  0  3.387336  0
N  N57  1  0.85781803  0.89940574  0.64699396  1  -1.2315  0  -0.338739  -0.337654  0  3.38717  0
N  N58  1  0.35782729  0.39940173  0.85300982  1  -1.231129  0  -0.338802  -0.337693  0  3.387365  0
N  N59  1  0.14216863  0.10060033  0.35300937  1  -1.231082  0  -0.338729  -0.33758  0  3.387132  0
N  N60  1  0.52671261  0.42948675  0.23117434  1  -1.204669  0  -0.337846  -0.337603  0  3.384024  0
N  N61  1  0.97328617  0.07051037  0.73117839  1  -1.204762  0  -0.337846  -0.337643  0  3.383736  0
N  N62  1  0.47328279  0.57051216  0.76882569  1  -1.204451  0  -0.33786  -0.337615  0  3.383703  0
N  N63  1  0.02670593  0.92949059  0.26882428  1  -1.204683  0  -0.337798  -0.337632  0  3.384031  0
O  O64  1  0.83263543  0.68107053  0.00940619  1  -1.177036  0  -0.367307  -0.577092  0  2.26951  0
O  O65  1  0.66738327  0.81892114  0.50940580  1  -1.177234  0  -0.36733  -0.577091  0  2.269355  0
O  O66  1  0.16739283  0.31892121  0.99059846  1  -1.177705  0  -0.367211  -0.577022  0  2.269455  0
O  O67  1  0.33263269  0.18107469  0.49059159  1  -1.177139  0  -0.367253  -0.576991  0  2.269275  0
O  O68  1  0.77848066  0.50129581  0.92860937  1  -1.187147  0  -0.291255  -0.537242  0  2.237243  0
O  O69  1  0.72151078  0.99870715  0.42861408  1  -1.187191  0  -0.291278  -0.537319  0  2.237387  0
O  O70  1  0.22151735  0.49870412  0.07139330  1  -1.187134  0  -0.291276  -0.537303  0  2.237212  0
O  O71  1  0.27847919  0.00130302  0.57138925  1  -1.187205  0  -0.29133  -0.537343  0  2.23738  0
O  O72  1  0.44649223  0.16626942  0.24017097  1  -1.193287  0  -0.342791  -0.587573  0  2.262388  0
O  O73  1  0.05350569  0.33373078  0.74017275  1  -1.193321  0  -0.342803  -0.587633  0  2.262432  0
O  O74  1  0.55349962  0.83372643  0.75983038  1  -1.193227  0  -0.342708  -0.587471  0  2.262494  0
O  O75  1  0.94649445  0.66627222  0.25982794  1  -1.19333  0  -0.342789  -0.587579  0  2.262611  0
O  O76  1  0.71106710  0.09795205  0.15698018  1  -1.188103  0  -0.344135  -0.581755  0  2.290298  0
O  O77  1  0.78892552  0.40204759  0.65698273  1  -1.187993  0  -0.344133  -0.58182  0  2.290187  0
O  O78  1  0.28891530  0.90204789  0.84301721  1  -1.188086  0  -0.344183  -0.581788  0  2.29025  0
O  O79  1  0.21107201  0.59795439  0.34301928  1  -1.187974  0  -0.344132  -0.581768  0  2.290089  0
O  O80  1  0.45644665  0.89285339  0.08819020  1  -1.183661  0  -0.356767  -0.574491  0  2.321409  0
O  O81  1  0.04357854  0.60713982  0.58820029  1  -1.18328  0  -0.356733  -0.574507  0  2.321214  0
O  O82  1  0.54358160  0.10712608  0.91179465  1  -1.183271  0  -0.356758  -0.574566  0  2.321424  0
O  O83  1  0.95643884  0.39286214  0.41180766  1  -1.183245  0  -0.356822  -0.5746  0  2.321559  0
O  O84  1  0.24639664  0.03236111  0.00382637  1  -1.153635  0  -0.340043  -0.513036  0  2.264384  0
O  O85  1  0.25363201  0.46763631  0.50383020  1  -1.153406  0  -0.340057  -0.513204  0  2.264307  0
O  O86  1  0.75363847  0.96763164  0.99616904  1  -1.153483  0  -0.340101  -0.513309  0  2.264238  0
O  O87  1  0.74638726  0.53236974  0.49617577  1  -1.153147  0  -0.340109  -0.513173  0  2.264042  0
O  O88  1  0.58058709  0.89169883  0.27693970  1  -1.279063  0  -0.621757  -0.797426  0  2.044352  0
O  O89  1  0.91940906  0.60830300  0.77694181  1  -1.279052  0  -0.621789  -0.797387  0  2.044462  0
O  O90  1  0.41941115  0.10830008  0.72305505  1  -1.278947  0  -0.621768  -0.797315  0  2.044483  0
O  O91  1  0.08058446  0.39169796  0.22305954  1  -1.279088  0  -0.621734  -0.797376  0  2.044371  0
O  O92  1  0.15256233  0.76548672  0.10863779  1  -1.336373  0  -0.64805  -0.837426  0  2.069458  0
O  O93  1  0.34744933  0.73451586  0.60864049  1  -1.336456  0  -0.648023  -0.837498  0  2.069361  0
O  O94  1  0.84745718  0.23451218  0.89136356  1  -1.3365  0  -0.648025  -0.837496  0  2.06934  0
O  O95  1  0.65255151  0.26549021  0.39136284  1  -1.336445  0  -0.648068  -0.837558  0  2.069288  0
