# generated using pymatgen
data_PrPH3CO6
_symmetry_space_group_name_H-M   'P 1'
_cell_length_a   6.73176588
_cell_length_b   7.13935707
_cell_length_c   8.32344541
_cell_angle_alpha   114.26777059
_cell_angle_beta   95.62204875
_cell_angle_gamma   90.43355529
_symmetry_Int_Tables_number   1
_chemical_formula_structural   PrPH3CO6
_chemical_formula_sum   'Pr2 P2 H6 C2 O12'
_cell_volume   362.42116584
_cell_formula_units_Z   2
loop_
 _symmetry_equiv_pos_site_id
 _symmetry_equiv_pos_as_xyz
  1  'x, y, z'
loop_
 _atom_site_type_symbol
 _atom_site_label
 _atom_site_symmetry_multiplicity
 _atom_site_fract_x
 _atom_site_fract_y
 _atom_site_fract_z
 _atom_site_occupancy
 _atom_site_hle17_bader_spin_density
 _atom_site_hle17_ddec_charge
 _atom_site_hle17_ddec_spin_density
 _atom_site_hle17_ddec_sum_bond_order
 _atom_site_hle17_magmom
 _atom_site_hse06_10hf_bader_spin_density
 _atom_site_hse06_10hf_ddec_charge
 _atom_site_hse06_10hf_ddec_spin_density
 _atom_site_hse06_10hf_ddec_sum_bond_order
 _atom_site_hse06_10hf_magmom
 _atom_site_hse06_bader_spin_density
 _atom_site_hse06_ddec_charge
 _atom_site_hse06_ddec_spin_density
 _atom_site_hse06_ddec_sum_bond_order
 _atom_site_hse06_magmom
 _atom_site_pbe_bader_spin_density
 _atom_site_pbe_cm5_charge
 _atom_site_pbe_ddec_charge
 _atom_site_pbe_ddec_spin_density
 _atom_site_pbe_ddec_sum_bond_order
 _atom_site_pbe_magmom
Pr  Pr0  1  0.12814510  0.21788029  0.93269142  1  0  2.359474  0  1.655025  0  0  2.208139  0  2.098572  0  0  2.281827  0  1.984279  0  0  1.558156  2.180506  0  2.131755  0
Pr  Pr1  1  0.87185904  0.78210246  0.06731341  1  0  2.359564  0  1.655242  0  0  2.208345  0  2.098628  0  0  2.281926  0  1.984511  0  0  1.558322  2.180781  0  2.131706  0
P  P2  1  0.67372756  0.25279777  0.01420534  1  0  1.514256  0  4.920429  0  0  1.328309  0  5.445067  0  0  1.37948  0  5.4111  0  0  0.292817  1.292026  0  5.474611  0
P  P3  1  0.32627963  0.74718672  0.98573664  1  0  1.515165  0  4.923267  0  0  1.329113  0  5.447951  0  0  1.380294  0  5.413937  0  0  0.292718  1.292841  0  5.477508  0
H  H4  1  0.64186888  0.33019068  0.19479117  1  0  -0.135971  0  0.854506  0  0  -0.103566  0  0.932215  0  0  -0.106597  0  0.926855  0  0  0.111954  -0.101606  0  0.936247  0
H  H5  1  0.35809932  0.66985288  0.80527834  1  0  -0.136221  0  0.85548  0  0  -0.103764  0  0.933182  0  0  -0.106799  0  0.927783  0  0  0.112124  -0.101799  0  0.937217  0
H  H6  1  0.08231226  0.29251701  0.30939190  1  0  0.434784  0  0.862981  0  0  0.406128  0  0.922191  0  0  0.416774  0  0.90667  0  0  0.304038  0.398555  0  0.933332  0
H  H7  1  0.91769118  0.70748257  0.69061499  1  0  0.434649  0  0.863192  0  0  0.406033  0  0.92236  0  0  0.416679  0  0.906834  0  0  0.304021  0.398455  0  0.933508  0
H  H8  1  0.09517865  0.51468397  0.31058859  1  0  0.438287  0  0.857886  0  0  0.409539  0  0.916972  0  0  0.420564  0  0.900844  0  0  0.304171  0.401715  0  0.928494  0
H  H9  1  0.90483112  0.48532331  0.68942022  1  0  0.438232  0  0.857949  0  0  0.409428  0  0.917135  0  0  0.420458  0  0.901007  0  0  0.304115  0.401588  0  0.928675  0
C  C10  1  0.99134142  0.10775577  0.49934761  1  0  0.581636  0  3.903179  0  0  0.538413  0  4.193587  0  0  0.567806  0  4.187898  0  0  0.242895  0.518337  0  4.19904  0
C  C11  1  0.00868649  0.89219301  0.50063675  1  0  0.582575  0  3.901858  0  0  0.539095  0  4.192535  0  0  0.568501  0  4.186826  0  0  0.243196  0.519014  0  4.198003  0
O  O12  1  0.80556060  0.06478769  0.97551704  1  0  -1.025707  0  2.045382  0  0  -0.940177  0  2.328592  0  0  -0.973578  0  2.306636  0  0  -0.512209  -0.922443  0  2.342955  0
O  O13  1  0.19447304  0.93515573  0.02450201  1  0  -1.025882  0  2.045962  0  0  -0.940315  0  2.329159  0  0  -0.97372  0  2.307192  0  0  -0.512183  -0.922591  0  2.343535  0
O  O14  1  0.47091402  0.20279039  0.90446567  1  0  -0.921759  0  1.930522  0  0  -0.841538  0  2.201925  0  0  -0.871524  0  2.176699  0  0  -0.478307  -0.824123  0  2.217138  0
O  O15  1  0.52901672  0.79718707  0.09551474  1  0  -0.92186  0  1.930719  0  0  -0.841641  0  2.202096  0  0  -0.871602  0  2.176866  0  0  -0.478188  -0.824241  0  2.217296  0
O  O16  1  0.80564419  0.41538298  0.98863547  1  0  -1.027759  0  2.050827  0  0  -0.942367  0  2.335073  0  0  -0.975805  0  2.312892  0  0  -0.510341  -0.924607  0  2.349486  0
O  O17  1  0.19439349  0.58470984  0.01137095  1  0  -1.027992  0  2.051621  0  0  -0.94265  0  2.336022  0  0  -0.976065  0  2.313762  0  0  -0.510391  -0.924891  0  2.35044  0
O  O18  1  0.02586363  0.26104685  0.64750163  1  0  -0.657789  0  2.070451  0  0  -0.603424  0  2.300451  0  0  -0.630712  0  2.288358  0  0  -0.335592  -0.587291  0  2.307664  0
O  O19  1  0.97411065  0.73893618  0.35244807  1  0  -0.658108  0  2.069962  0  0  -0.603734  0  2.300128  0  0  -0.631002  0  2.288016  0  0  -0.335747  -0.58762  0  2.30736  0
O  O20  1  0.05528818  0.88666989  0.64954268  1  0  -0.659363  0  2.068446  0  0  -0.606783  0  2.301028  0  0  -0.633814  0  2.289185  0  0  -0.334868  -0.59077  0  2.308137  0
O  O21  1  0.94471309  0.11334694  0.35048552  1  0  -0.658997  0  2.068885  0  0  -0.606497  0  2.301325  0  0  -0.633503  0  2.289493  0  0  -0.334681  -0.590495  0  2.308422  0
O  O22  1  0.15281755  0.37733157  0.26131766  1  0  -0.900687  0  1.788092  0  0  -0.853116  0  1.958723  0  0  -0.874872  0  1.922653  0  0  -0.643022  -0.840741  0  1.981763  0
O  O23  1  0.84719144  0.62269090  0.73868784  1  0  -0.900526  0  1.788297  0  0  -0.85297  0  1.958832  0  0  -0.874716  0  1.922766  0  0  -0.643  -0.840598  0  1.981913  0
