# generated using pymatgen
data_ZnH26C30(NO)4
_symmetry_space_group_name_H-M   'P 1'
_cell_length_a   9.86014172
_cell_length_b   12.28256114
_cell_length_c   12.49300000
_cell_angle_alpha   61.13364551
_cell_angle_beta   85.90796921
_cell_angle_gamma   88.80363381
_symmetry_Int_Tables_number   1
_chemical_formula_structural   ZnH26C30(NO)4
_chemical_formula_sum   'Zn2 H52 C60 N8 O8'
_cell_volume   1321.46937055
_cell_formula_units_Z   2
loop_
 _symmetry_equiv_pos_site_id
 _symmetry_equiv_pos_as_xyz
  1  'x, y, z'
loop_
 _atom_site_type_symbol
 _atom_site_label
 _atom_site_symmetry_multiplicity
 _atom_site_fract_x
 _atom_site_fract_y
 _atom_site_fract_z
 _atom_site_occupancy
 _atom_site_hle17_bader_spin_density
 _atom_site_hle17_ddec_charge
 _atom_site_hle17_ddec_spin_density
 _atom_site_hle17_ddec_sum_bond_order
 _atom_site_hle17_magmom
 _atom_site_hse06_10hf_bader_spin_density
 _atom_site_hse06_10hf_ddec_charge
 _atom_site_hse06_10hf_ddec_spin_density
 _atom_site_hse06_10hf_ddec_sum_bond_order
 _atom_site_hse06_10hf_magmom
 _atom_site_hse06_bader_spin_density
 _atom_site_hse06_ddec_charge
 _atom_site_hse06_ddec_spin_density
 _atom_site_hse06_ddec_sum_bond_order
 _atom_site_hse06_magmom
 _atom_site_pbe_bader_charge
 _atom_site_pbe_bader_spin_density
 _atom_site_pbe_cm5_charge
 _atom_site_pbe_ddec_charge
 _atom_site_pbe_ddec_spin_density
 _atom_site_pbe_ddec_sum_bond_order
 _atom_site_pbe_magmom
Zn  Zn0  1  0.67851917  0.29124514  0.00252407  1  0  1.031374  0  1.838422  0  0  0.840656  0  2.322716  0  0  0.888463  0  2.266277  0  1.25828  0  0.69571  0.807165  0  2.361623  0
Zn  Zn1  1  0.32148121  0.70875558  0.99747581  1  0  1.031386  0  1.838388  0  0  0.840714  0  2.322686  0  0  0.888525  0  2.266237  0  1.258282  0  0.695732  0.807219  0  2.361591  0
H  H2  1  0.17975914  0.46521789  0.87797328  1  0  0.140865  0  0.968842  0  0  0.148365  0  1.030086  0  0  0.152067  0  1.027527  0  0.214357  0  0.127723  0.14562  0  1.032046  0
H  H3  1  0.82023609  0.53477910  0.12202865  1  0  0.140843  0  0.968852  0  0  0.148361  0  1.030075  0  0  0.152061  0  1.027521  0  0.214374  0  0.127736  0.145636  0  1.032009  0
H  H4  1  0.92860773  0.42650056  0.80511363  1  0  0.098755  0  0.960225  0  0  0.110014  0  1.019639  0  0  0.111616  0  1.020197  0  0.107764  0  0.115701  0.10883  0  1.019334  0
H  H5  1  0.07138964  0.57350294  0.19488189  1  0  0.098694  0  0.960368  0  0  0.109987  0  1.019726  0  0  0.11159  0  1.020282  0  0.107649  0  0.115691  0.108803  0  1.01942  0
H  H6  1  0.94411322  0.34838716  0.28813322  1  0  0.088835  0  0.959181  0  0  0.102308  0  1.017182  0  0  0.105034  0  1.016093  0  0.059163  0  0.102535  0.100431  0  1.017928  0
H  H7  1  0.05588611  0.65161170  0.71186439  1  0  0.088854  0  0.959191  0  0  0.102353  0  1.017158  0  0  0.105078  0  1.01607  0  0.059277  0  0.102557  0.100475  0  1.017905  0
H  H8  1  0.87319618  0.20189896  0.50540198  1  0  0.083075  0  0.974396  0  0  0.094072  0  1.033983  0  0  0.096014  0  1.03479  0  0.067091  0  0.09535  0.092718  0  1.033456  0
H  H9  1  0.12680924  0.79809897  0.49459734  1  0  0.08298  0  0.974417  0  0  0.094007  0  1.033973  0  0  0.095945  0  1.034781  0  0.066946  0  0.095332  0.092654  0  1.033446  0
H  H10  1  0.79678148  0.98696136  0.56591077  1  0  0.084293  0  0.967657  0  0  0.098601  0  1.023131  0  0  0.101255  0  1.022154  0  0.078873  0  0.100075  0.096747  0  1.023893  0
H  H11  1  0.20321989  0.01303750  0.43408993  1  0  0.084286  0  0.967675  0  0  0.098571  0  1.023173  0  0  0.101223  0  1.0222  0  0.078877  0  0.100085  0.096718  0  1.023932  0
H  H12  1  0.79079669  0.91838108  0.40901944  1  0  0.083383  0  0.966173  0  0  0.094332  0  1.026873  0  0  0.096291  0  1.02749  0  0.069597  0  0.097476  0.092802  0  1.026816  0
H  H13  1  0.20920167  0.08162057  0.59097931  1  0  0.083373  0  0.966164  0  0  0.09432  0  1.026864  0  0  0.096278  0  1.027481  0  0.069603  0  0.097473  0.092789  0  1.026809  0
H  H14  1  0.86061707  0.06536786  0.19110675  1  0  0.084841  0  0.972842  0  0  0.094304  0  1.039417  0  0  0.096535  0  1.039311  0  0.064231  0  0.096458  0.092791  0  1.039394  0
H  H15  1  0.13938126  0.93463192  0.80889129  1  0  0.084872  0  0.972821  0  0  0.094328  0  1.039407  0  0  0.096557  0  1.0393  0  0.064275  0  0.09647  0.092814  0  1.039383  0
H  H16  1  0.44544155  0.98037846  0.81910612  1  0  0.102513  0  0.969616  0  0  0.113668  0  1.028596  0  0  0.116179  0  1.027333  0  0.09762  0  0.119176  0.111902  0  1.029466  0
H  H17  1  0.55456087  0.01962319  0.18089401  1  0  0.102525  0  0.969606  0  0  0.113683  0  1.028585  0  0  0.116194  0  1.027323  0  0.097562  0  0.119186  0.111917  0  1.029453  0
H  H18  1  0.37141891  0.18525016  0.85141536  1  0  0.143505  0  0.980822  0  0  0.151497  0  1.043151  0  0  0.155591  0  1.039596  0  0.210587  0  0.126033  0.148503  0  1.045787  0
H  H19  1  0.62858252  0.81475241  0.14858517  1  0  0.143436  0  0.98091  0  0  0.151507  0  1.043135  0  0  0.155601  0  1.039581  0  0.210601  0  0.126034  0.148514  0  1.04577  0
H  H20  1  0.97403688  0.92273900  0.10622749  1  0  0.085879  0  0.970696  0  0  0.093615  0  1.039821  0  0  0.096654  0  1.037976  0  0.072185  0  0.098808  0.091584  0  1.040948  0
H  H21  1  0.02596348  0.07726079  0.89377043  1  0  0.085859  0  0.970739  0  0  0.093628  0  1.039825  0  0  0.09667  0  1.037973  0  0.072189  0  0.098804  0.091594  0  1.040961  0
H  H22  1  0.83797142  0.78196528  0.29654068  1  0  0.086135  0  0.96552  0  0  0.096214  0  1.028577  0  0  0.098483  0  1.028414  0  0.052878  0  0.100335  0.094364  0  1.029141  0
H  H23  1  0.16203198  0.21803358  0.70345911  1  0  0.086162  0  0.965536  0  0  0.096244  0  1.028587  0  0  0.098512  0  1.028425  0  0.052974  0  0.100349  0.094402  0  1.029144  0
H  H24  1  0.95075998  0.61169401  0.47074357  1  0  0.086439  0  0.954108  0  0  0.098963  0  1.010811  0  0  0.101499  0  1.01  0  0.063044  0  0.101471  0.097172  0  1.011405  0
H  H25  1  0.04924141  0.38830671  0.52925465  1  0  0.086436  0  0.954097  0  0  0.098966  0  1.010798  0  0  0.101493  0  1.009997  0  0.063007  0  0.101479  0.097175  0  1.011392  0
H  H26  1  0.20087139  0.58256094  0.45192145  1  0  0.089592  0  0.94956  0  0  0.101585  0  1.006342  0  0  0.104179  0  1.005508  0  0.089464  0  0.103817  0.099686  0  1.007158  0
H  H27  1  0.79912997  0.41743791  0.54807686  1  0  0.089654  0  0.949559  0  0  0.101641  0  1.006343  0  0  0.104236  0  1.005509  0  0.089448  0  0.103862  0.099743  0  1.007157  0
H  H28  1  0.33746758  0.72363220  0.25974900  1  0  0.108785  0  0.969505  0  0  0.117536  0  1.032229  0  0  0.120342  0  1.031508  0  0.094925  0  0.105378  0.115355  0  1.033081  0
H  H29  1  0.66253483  0.27636852  0.74024836  1  0  0.108794  0  0.969474  0  0  0.117542  0  1.032205  0  0  0.120349  0  1.031483  0  0.094873  0  0.10539  0.115362  0  1.033056  0
H  H30  1  0.16105311  0.37656998  0.19416003  1  0  0.070476  0  0.938935  0  0  0.082963  0  1.006489  0  0  0.083478  0  1.006234  0  0.046861  0  0.105066  0.082494  0  1.006861  0
H  H31  1  0.83894830  0.62343166  0.80583775  1  0  0.070456  0  0.938942  0  0  0.082927  0  1.006519  0  0  0.083443  0  1.006262  0  0.046851  0  0.105046  0.082458  0  1.006891  0
H  H32  1  0.27319390  0.40592341  0.06665198  1  0  0.11643  0  0.931669  0  0  0.131654  0  0.988195  0  0  0.133622  0  0.986801  0  0.159502  0  0.121822  0.130179  0  0.989277  0
H  H33  1  0.72680746  0.59407544  0.93334632  1  0  0.116415  0  0.931692  0  0  0.131628  0  0.98825  0  0  0.133596  0  0.986854  0  0.159307  0  0.121821  0.130154  0  0.989331  0
H  H34  1  0.15912308  0.14928222  0.26201806  1  0  0.055172  0  0.976806  0  0  0.073315  0  1.039954  0  0  0.073368  0  1.041579  0  0.009379  0  0.085647  0.073194  0  1.039096  0
H  H35  1  0.84087626  0.85071757  0.73798232  1  0  0.05516  0  0.976787  0  0  0.073295  0  1.039947  0  0  0.073345  0  1.041571  0  0.009385  0  0.085645  0.073172  0  1.039088  0
H  H36  1  0.32188935  0.21042233  0.25591290  1  0  0.084517  0  0.95192  0  0  0.102681  0  1.012339  0  0  0.102686  0  1.014014  0  0.069823  0  0.09707  0.102397  0  1.011688  0
H  H37  1  0.67811000  0.78957746  0.74408908  1  0  0.084513  0  0.951988  0  0  0.102686  0  1.012381  0  0  0.102691  0  1.014056  0  0.069837  0  0.097092  0.102403  0  1.011729  0
H  H38  1  0.37849686  0.21715586  0.05104803  1  0  0.09015  0  0.929547  0  0  0.107871  0  0.989506  0  0  0.109237  0  0.988928  0  0.076386  0  0.098962  0.106634  0  0.990275  0
H  H39  1  0.62150650  0.78284114  0.94895505  1  0  0.09015  0  0.929555  0  0  0.107855  0  0.989563  0  0  0.109226  0  0.988988  0  0.076423  0  0.098956  0.106617  0  0.990329  0
H  H40  1  0.35424617  0.06811725  0.18046905  1  0  0.06393  0  0.942028  0  0  0.083452  0  1.001102  0  0  0.083865  0  1.001435  0  0.010186  0  0.091561  0.083115  0  1.000893  0
H  H41  1  0.64575216  0.93188254  0.81953299  1  0  0.063928  0  0.942008  0  0  0.083473  0  1.001082  0  0  0.083892  0  1.001414  0  0.0102  0  0.091565  0.083136  0  1.000871  0
H  H42  1  0.11238387  0.06460451  0.12518491  1  0  0.065726  0  0.955326  0  0  0.080651  0  1.023154  0  0  0.080746  0  1.024017  0  0.066669  0  0.105258  0.080439  0  1.022668  0
H  H43  1  0.88761955  0.93539621  0.87481480  1  0  0.06574  0  0.955317  0  0  0.080652  0  1.023125  0  0  0.080744  0  1.023986  0  0.066634  0  0.105278  0.08044  0  1.022636  0
H  H44  1  0.15261429  0.20024300  0.98313236  1  0  0.073886  0  0.955815  0  0  0.088123  0  1.02038  0  0  0.088205  0  1.02203  0  0.057701  0  0.108461  0.087928  0  1.019324  0
H  H45  1  0.84738808  0.79975585  0.01687069  1  0  0.073907  0  0.955781  0  0  0.088141  0  1.020315  0  0  0.088224  0  1.02196  0  0.057656  0  0.108466  0.087945  0  1.019261  0
H  H46  1  0.44238029  0.87237978  0.60825012  1  0  0.091798  0  0.964306  0  0  0.101087  0  1.029035  0  0  0.104098  0  1.027713  0  0.081575  0  0.098673  0.098983  0  1.029955  0
H  H47  1  0.55761807  0.12762186  0.39175183  1  0  0.091821  0  0.964271  0  0  0.101085  0  1.02903  0  0  0.104095  0  1.027711  0  0.08177  0  0.098668  0.098989  0  1.029942  0
H  H48  1  0.51964123  0.91021010  0.39847576  1  0  0.079795  0  0.961601  0  0  0.092312  0  1.021582  0  0  0.095533  0  1.019737  0  0.052659  0  0.094969  0.090004  0  1.023014  0
H  H49  1  0.48035811  0.08978969  0.60152622  1  0  0.079856  0  0.961529  0  0  0.092331  0  1.021554  0  0  0.095554  0  1.019711  0  0.052714  0  0.094992  0.090023  0  1.022984  0
H  H50  1  0.59248893  0.72911609  0.36761082  1  0  0.088851  0  0.966775  0  0  0.099999  0  1.028757  0  0  0.103204  0  1.026519  0  0.08207  0  0.096759  0.097595  0  1.030632  0
H  H51  1  0.40751041  0.27088370  0.63239036  1  0  0.088881  0  0.966691  0  0  0.100004  0  1.028714  0  0  0.103209  0  1.026475  0  0.08216  0  0.096772  0.097601  0  1.030586  0
H  H52  1  0.59587052  0.51852268  0.54601086  1  0  0.088739  0  0.965124  0  0  0.10002  0  1.027144  0  0  0.102477  0  1.026847  0  0.064342  0  0.098648  0.098256  0  1.027498  0
H  H53  1  0.40412882  0.48147711  0.45399032  1  0  0.088748  0  0.965187  0  0  0.100022  0  1.027207  0  0  0.102478  0  1.026913  0  0.064189  0  0.098669  0.098259  0  1.027561  0
C  C54  1  0.95326578  0.29845286  0.09640683  1  0  0.268895  0  3.716799  0  0  0.234188  0  3.979171  0  0  0.248724  0  3.994715  0  0.935473  0  0.219174  0.224751  0  3.968444  0
C  C55  1  0.04673151  0.70154600  0.90359251  1  0  0.268971  0  3.716656  0  0  0.234228  0  3.979042  0  0  0.248764  0  3.994586  0  0.935152  0  0.219214  0.224783  0  3.968322  0
C  C56  1  0.08680232  0.41542492  0.92888971  1  0  -0.056588  0  3.651539  0  0  -0.101143  0  3.916933  0  0  -0.099173  0  3.934102  0  0.286696  0  0.004251  -0.102337  0  3.905454  0
C  C57  1  0.91319592  0.58456928  0.07111177  1  0  -0.056538  0  3.651634  0  0  -0.1011  0  3.917046  0  0  -0.099129  0  3.934216  0  0.286523  0  0.004267  -0.102311  0  3.905554  0
C  C58  1  0.96407018  0.39486451  0.89552334  1  0  -0.00404  0  3.775278  0  0  -0.040617  0  4.052905  0  0  -0.039257  0  4.073829  0  0.409243  0  -0.007361  -0.041586  0  4.038801  0
C  C59  1  0.03592609  0.60513342  0.10447650  1  0  -0.004044  0  3.775489  0  0  -0.04066  0  4.053133  0  0  -0.039302  0  4.074057  0  0.409415  0  -0.007398  -0.041631  0  4.03903  0
C  C60  1  0.90829575  0.21610799  0.22528507  1  0  -0.005884  0  3.813289  0  0  0.013237  0  4.049441  0  0  0.011153  0  4.071273  0  0.013178  0  -0.007974  0.014292  0  4.035268  0
C  C61  1  0.09170458  0.78388994  0.77471214  1  0  -0.005886  0  3.813303  0  0  0.013312  0  4.049364  0  0  0.011229  0  4.071195  0  0.013323  0  -0.007945  0.014369  0  4.03519  0
C  C62  1  0.91198280  0.25382115  0.31474722  1  0  -0.091739  0  3.727252  0  0  -0.113877  0  3.970815  0  0  -0.115288  0  3.991069  0  -0.030099  0  -0.084159  -0.112758  0  3.957281  0
C  C63  1  0.08801451  0.74617864  0.68524927  1  0  -0.091875  0  3.727316  0  0  -0.114066  0  3.970878  0  0  -0.115477  0  3.99113  0  -0.030227  0  -0.084199  -0.112946  0  3.957344  0
C  C64  1  0.87177945  0.17153857  0.43668531  1  0  -0.064298  0  3.774577  0  0  -0.07401  0  4.019867  0  0  -0.076712  0  4.042501  0  -0.076962  0  -0.08956  -0.072145  0  4.004463  0
C  C65  1  0.12821992  0.82846308  0.56331098  1  0  -0.064083  0  3.774592  0  0  -0.073807  0  4.019874  0  0  -0.076503  0  4.042504  0  -0.076943  0  -0.089541  -0.071943  0  4.004471  0
C  C66  1  0.82829616  0.05102773  0.47065312  1  0  -0.058392  0  3.762099  0  0  -0.073933  0  4.008531  0  0  -0.075265  0  4.02985  0  0.039884  0  -0.08646  -0.072831  0  3.993927  0
C  C67  1  0.17170619  0.94896927  0.52934841  1  0  -0.058438  0  3.762194  0  0  -0.073969  0  4.008636  0  0  -0.075301  0  4.029954  0  0.039915  0  -0.086462  -0.072866  0  3.994032  0
C  C68  1  0.82440866  0.01258841  0.38246824  1  0  -0.07128  0  3.78341  0  0  -0.083036  0  4.033116  0  0  -0.085876  0  4.05558  0  -0.042775  0  -0.090674  -0.081131  0  4.017895  0
C  C69  1  0.17558968  0.98741231  0.61753096  1  0  -0.071238  0  3.783361  0  0  -0.082984  0  4.033046  0  0  -0.085823  0  4.055509  0  -0.042748  0  -0.090683  -0.08108  0  4.017826  0
C  C70  1  0.86351076  0.09486634  0.26035184  1  0  -0.098759  0  3.743146  0  0  -0.121856  0  3.993055  0  0  -0.123005  0  4.013386  0  -0.089915  0  -0.090234  -0.120855  0  3.979331  0
C  C71  1  0.13648552  0.90513252  0.73964675  1  0  -0.098821  0  3.743209  0  0  -0.121941  0  3.993114  0  0  -0.123088  0  4.013444  0  -0.090028  0  -0.090258  -0.120939  0  3.979388  0
C  C72  1  0.24630202  0.91569957  0.05774678  1  0  0.267609  0  3.720744  0  0  0.232451  0  3.982707  0  0  0.24728  0  3.997716  0  0.947945  0  0.217528  0.222813  0  3.972058  0
C  C73  1  0.75369734  0.08430115  0.94225075  1  0  0.267579  0  3.720737  0  0  0.232467  0  3.982637  0  0  0.247295  0  3.997643  0  0.947932  0  0.217548  0.222828  0  3.971988  0
C  C74  1  0.38174361  0.98558713  0.89063039  1  0  0.008607  0  3.753536  0  0  -0.028533  0  4.027011  0  0  -0.027364  0  4.048232  0  0.448091  0  -0.002261  -0.029327  0  4.01265  0
C  C75  1  0.61825676  0.01441358  0.10936869  1  0  0.00863  0  3.753568  0  0  -0.028531  0  4.027061  0  0  -0.027362  0  4.048282  0  0.448176  0  -0.002289  -0.029325  0  4.0127  0
C  C76  1  0.34189064  0.08734621  0.90225908  1  0  -0.062312  0  3.642539  0  0  -0.103569  0  3.902425  0  0  -0.102811  0  3.921591  0  0.243106  0  0.003006  -0.104025  0  3.889745  0
C  C77  1  0.65811382  0.91265544  0.09774093  1  0  -0.062279  0  3.64262  0  0  -0.103588  0  3.902498  0  0  -0.10283  0  3.92166  0  0.243145  0  0.003042  -0.104043  0  3.889816  0
C  C78  1  0.16500658  0.83323196  0.17103202  1  0  -0.006723  0  3.815198  0  0  0.013281  0  4.050614  0  0  0.010636  0  4.072818  0  0.025949  0  -0.009448  0.014967  0  4.035475  0
C  C79  1  0.83499278  0.16676875  0.82896632  1  0  -0.006725  0  3.815143  0  0  0.013263  0  4.050569  0  0  0.010618  0  4.072773  0  0.025936  0  -0.00946  0.01495  0  4.03543  0
C  C80  1  0.02421705  0.84911554  0.18252059  1  0  -0.102342  0  3.75341  0  0  -0.125504  0  4.005448  0  0  -0.126057  0  4.024788  0  -0.107646  0  -0.090654  -0.124916  0  3.992013  0
C  C81  1  0.97578431  0.15088331  0.81747932  1  0  -0.102362  0  3.753446  0  0  -0.125551  0  4.005487  0  0  -0.126103  0  4.024824  0  -0.107625  0  -0.090687  -0.124964  0  3.992053  0
C  C82  1  0.94739550  0.76949681  0.28948727  1  0  -0.067668  0  3.779302  0  0  -0.079408  0  4.026092  0  0  -0.081881  0  4.047817  0  0.004475  0  -0.089371  -0.077532  0  4.011357  0
C  C83  1  0.05260690  0.23050298  0.71051133  1  0  -0.067684  0  3.779301  0  0  -0.079424  0  4.026105  0  0  -0.081896  0  4.047832  0  0.004334  0  -0.089333  -0.077554  0  4.011366  0
C  C84  1  0.01070959  0.67314653  0.38653764  1  0  -0.072935  0  3.775504  0  0  -0.085712  0  4.018851  0  0  -0.086612  0  4.03942  0  -0.104668  0  -0.087723  -0.084977  0  4.004741  0
C  C85  1  0.98929179  0.32685325  0.61346102  1  0  -0.072867  0  3.775455  0  0  -0.08565  0  4.018792  0  0  -0.086542  0  4.039364  0  -0.104655  0  -0.087706  -0.084915  0  4.004685  0
C  C86  1  0.15079091  0.65675343  0.37581427  1  0  -0.074422  0  3.78105  0  0  -0.085979  0  4.030451  0  0  -0.088506  0  4.051598  0  -0.062612  0  -0.089106  -0.084332  0  4.016132  0
C  C87  1  0.84920947  0.34324729  0.62418241  1  0  -0.074526  0  3.781069  0  0  -0.086072  0  4.030481  0  0  -0.0886  0  4.051628  0  -0.062629  0  -0.08918  -0.084425  0  4.016162  0
C  C88  1  0.22815301  0.73608300  0.26865526  1  0  -0.090347  0  3.709675  0  0  -0.110952  0  3.950933  0  0  -0.112217  0  3.971308  0  -0.005867  0  -0.082127  -0.109872  0  3.937218  0
C  C89  1  0.77184840  0.26391865  0.73134332  1  0  -0.090348  0  3.709677  0  0  -0.110959  0  3.950951  0  0  -0.112223  0  3.971323  0  -0.005749  0  -0.08215  -0.109881  0  3.937237  0
C  C90  1  0.19262786  0.34262712  0.12975055  1  0  -0.003695  0  3.591404  0  0  -0.064078  0  3.844757  0  0  -0.060007  0  3.855315  0  0.267393  0  -0.057276  -0.066825  0  3.837742  0
C  C91  1  0.80737248  0.65737174  0.87024941  1  0  -0.003648  0  3.591437  0  0  -0.064063  0  3.84484  0  0  -0.05999  0  3.855395  0  0.267552  0  -0.057269  -0.06681  0  3.837823  0
C  C92  1  0.24233711  0.20954461  0.19911694  1  0  -0.127223  0  3.683054  0  0  -0.170009  0  3.941829  0  0  -0.171271  0  3.955586  0  -0.021702  0  -0.165853  -0.168924  0  3.93273  0
C  C93  1  0.75766424  0.79045332  0.80088261  1  0  -0.127204  0  3.683123  0  0  -0.169952  0  3.941889  0  0  -0.171205  0  3.955648  0  -0.021711  0  -0.165846  -0.168864  0  3.932785  0
C  C94  1  0.30175183  0.15379727  0.12035735  1  0  -0.117456  0  3.657113  0  0  -0.158284  0  3.918524  0  0  -0.159133  0  3.930968  0  -0.011654  0  -0.163468  -0.157645  0  3.910013  0
C  C95  1  0.69824751  0.84620251  0.87964223  1  0  -0.117393  0  3.657133  0  0  -0.158303  0  3.918578  0  0  -0.159173  0  3.931051  0  -0.011675  0  -0.163459  -0.157663  0  3.91007  0
C  C96  1  0.19587644  0.11846065  0.05851294  1  0  0.000751  0  3.62364  0  0  -0.063841  0  3.882792  0  0  -0.059414  0  3.89386  0  0.298287  0  -0.058831  -0.06664  0  3.875173  0
C  C97  1  0.80412692  0.88153634  0.94148614  1  0  0.000626  0  3.623622  0  0  -0.063873  0  3.882691  0  0  -0.059433  0  3.893755  0  0.298308  0  -0.058872  -0.06667  0  3.875072  0
C  C98  1  0.52150234  0.57542295  0.67742032  1  0  -0.037154  0  3.696793  0  0  -0.021284  0  3.923356  0  0  -0.023891  0  3.942861  0  -0.066047  0  -0.003188  -0.01954  0  3.91029  0
C  C99  1  0.47850010  0.42457962  0.32258096  1  0  -0.03728  0  3.696746  0  0  -0.02142  0  3.923278  0  0  -0.024016  0  3.942785  0  -0.065933  0  -0.003273  -0.01968  0  3.91022  0
C  C100  1  0.47658611  0.67612743  0.69437246  1  0  -0.076637  0  3.717234  0  0  -0.060407  0  3.94665  0  0  -0.066561  0  3.967323  0  0.001193  0  -0.014867  -0.056482  0  3.93304  0
C  C101  1  0.52341325  0.32387328  0.30563068  1  0  -0.076588  0  3.717182  0  0  -0.060337  0  3.946566  0  0  -0.066503  0  3.967254  0  0.001041  0  -0.014838  -0.056411  0  3.932957  0
C  C102  1  0.47850852  0.79597068  0.59342563  1  0  -0.074185  0  3.762289  0  0  -0.097375  0  4.011221  0  0  -0.09677  0  4.03094  0  -0.041121  0  -0.08921  -0.097632  0  3.997898  0
C  C103  1  0.52148679  0.20403096  0.40657649  1  0  -0.074214  0  3.762364  0  0  -0.097387  0  4.011282  0  0  -0.096777  0  4.031005  0  -0.041081  0  -0.089154  -0.097651  0  3.997955  0
C  C104  1  0.52062835  0.81636932  0.47612057  1  0  -0.092022  0  3.810254  0  0  -0.105012  0  4.062498  0  0  -0.10802  0  4.083562  0  -0.035417  0  -0.10209  -0.102998  0  4.048318  0
C  C105  1  0.47936897  0.18363140  0.52388268  1  0  -0.092039  0  3.810309  0  0  -0.104981  0  4.062529  0  0  -0.107993  0  4.083597  0  -0.035576  0  -0.102134  -0.102968  0  4.048351  0
C  C106  1  0.56228851  0.71618273  0.45879142  1  0  -0.073418  0  3.793164  0  0  -0.08746  0  4.04253  0  0  -0.087737  0  4.062993  0  -0.084929  0  -0.097003  -0.087143  0  4.028918  0
C  C107  1  0.43770780  0.28381799  0.54121028  1  0  -0.073541  0  3.793198  0  0  -0.087569  0  4.042578  0  0  -0.087847  0  4.063042  0  -0.085082  0  -0.097059  -0.087252  0  4.028965  0
C  C108  1  0.56328148  0.59677462  0.55934752  1  0  -0.105428  0  3.766578  0  0  -0.125496  0  4.011376  0  0  -0.128826  0  4.033288  0  -0.058852  0  -0.096523  -0.123246  0  3.996549  0
C  C109  1  0.43671686  0.40322610  0.44065328  1  0  -0.105339  0  3.766596  0  0  -0.125388  0  4.011378  0  0  -0.128717  0  4.033288  0  -0.058914  0  -0.096498  -0.123138  0  3.996552  0
C  C110  1  0.53406225  0.44536877  0.78307437  1  0  0.66958  0  3.930781  0  0  0.614522  0  4.23835  0  0  0.649661  0  4.227136  0  1.629317  0  0.206913  0.590518  0  4.245244  0
C  C111  1  0.46593816  0.55463381  0.21692623  1  0  0.669574  0  3.93079  0  0  0.614598  0  4.23826  0  0  0.649715  0  4.227076  0  1.629437  0  0.206908  0.590595  0  4.245153  0
C  C112  1  0.41565487  0.65441036  0.81701201  1  0  0.645751  0  3.90673  0  0  0.595036  0  4.201822  0  0  0.628787  0  4.194911  0  1.575919  0  0.20362  0.572018  0  4.205983  0
C  C113  1  0.58434049  0.34559408  0.18298559  1  0  0.645774  0  3.906647  0  0  0.595051  0  4.201746  0  0  0.628805  0  4.194838  0  1.57631  0  0.203601  0.572034  0  4.205907  0
N  N114  1  0.88187150  0.32260970  0.99984014  1  0  -0.42559  0  3.261397  0  0  -0.353064  0  3.562972  0  0  -0.37318  0  3.575205  0  -1.233151  0  -0.354361  -0.339437  0  3.554517  0
N  N115  1  0.11812583  0.67739102  0.00015991  1  0  -0.4256  0  3.261282  0  0  -0.353064  0  3.562869  0  0  -0.373179  0  3.5751  0  -1.233052  0  -0.354328  -0.339428  0  3.554409  0
N  N116  1  0.07827715  0.35495519  0.05546472  1  0  -0.09501  0  3.515188  0  0  -0.000438  0  3.726364  0  0  -0.015671  0  3.752737  0  -1.257617  0  -0.235441  0.009607  0  3.708446  0
N  N117  1  0.92172111  0.64504088  0.94453669  1  0  -0.095014  0  3.515177  0  0  -0.000427  0  3.726357  0  0  -0.015661  0  3.752731  0  -1.257298  0  -0.235471  0.009619  0  3.708447  0
N  N118  1  0.25511441  0.04213802  0.00695164  1  0  -0.098977  0  3.537926  0  0  -0.00538  0  3.75404  0  0  -0.020429  0  3.779788  0  -1.217007  0  -0.238756  0.004532  0  3.736551  0
N  N119  1  0.74488901  0.95786269  0.99304727  1  0  -0.098918  0  3.537897  0  0  -0.005371  0  3.754006  0  0  -0.020419  0  3.77975  0  -1.216962  0  -0.23878  0.00454  0  3.736518  0
N  N120  1  0.32296707  0.87968234  0.98755201  1  0  -0.427628  0  3.276815  0  0  -0.356017  0  3.581006  0  0  -0.375453  0  3.591662  0  -1.232869  0  -0.352682  -0.34285  0  3.57349  0
N  N121  1  0.67703536  0.12031930  0.01244811  1  0  -0.427672  0  3.276852  0  0  -0.356046  0  3.58101  0  0  -0.375482  0  3.591664  0  -1.232857  0  -0.352694  -0.342878  0  3.573492  0
O  O122  1  0.62931572  0.43728053  0.85272611  1  0  -0.658567  0  2.071056  0  0  -0.583554  0  2.358058  0  0  -0.612968  0  2.341244  0  -1.172789  0  -0.332873  -0.562906  0  2.368831  0
O  O123  1  0.37068674  0.56272297  0.14727233  1  0  -0.658461  0  2.070952  0  0  -0.583582  0  2.358054  0  0  -0.612989  0  2.341247  0  -1.172834  0  -0.332863  -0.562934  0  2.368825  0
O  O124  1  0.46445838  0.35779476  0.79074708  1  0  -0.630413  0  1.913555  0  0  -0.5913  0  2.141983  0  0  -0.613475  0  2.130549  0  -1.199098  0  -0.333659  -0.575261  0  2.149161  0
O  O125  1  0.53554298  0.64220409  0.20925843  1  0  -0.630426  0  1.913589  0  0  -0.591346  0  2.141995  0  0  -0.613514  0  2.130566  0  -1.1992  0  -0.333663  -0.575307  0  2.149168  0
O  O126  1  0.42269413  0.74687226  0.83990341  1  0  -0.660342  0  2.027809  0  0  -0.580583  0  2.297858  0  0  -0.610183  0  2.284401  0  -1.166911  0  -0.334213  -0.559638  0  2.30666  0
O  O127  1  0.57730419  0.25312752  0.16009943  1  0  -0.660333  0  2.027707  0  0  -0.580584  0  2.297779  0  0  -0.610177  0  2.28431  0  -1.167124  0  -0.334178  -0.559639  0  2.306583  0
O  O128  1  0.35781658  0.55268125  0.88799987  1  0  -0.597485  0  1.957124  0  0  -0.55087  0  2.183786  0  0  -0.573967  0  2.175972  0  -1.183655  0  -0.306041  -0.534604  0  2.188633  0
O  O129  1  0.64218171  0.44731667  0.11200305  1  0  -0.59747  0  1.957184  0  0  -0.550866  0  2.183874  0  0  -0.573962  0  2.176058  0  -1.183659  0  -0.306046  -0.534605  0  2.188724  0
