# generated using pymatgen
data_MnH8C9O8
_symmetry_space_group_name_H-M   'P 1'
_cell_length_a   7.04023347
_cell_length_b   7.07193129
_cell_length_c   12.66483067
_cell_angle_alpha   104.32858550
_cell_angle_beta   88.57413173
_cell_angle_gamma   114.42772561
_symmetry_Int_Tables_number   1
_chemical_formula_structural   MnH8C9O8
_chemical_formula_sum   'Mn2 H16 C18 O16'
_cell_volume   554.10413532
_cell_formula_units_Z   2
loop_
 _symmetry_equiv_pos_site_id
 _symmetry_equiv_pos_as_xyz
  1  'x, y, z'
loop_
 _atom_site_type_symbol
 _atom_site_label
 _atom_site_symmetry_multiplicity
 _atom_site_fract_x
 _atom_site_fract_y
 _atom_site_fract_z
 _atom_site_occupancy
 _atom_site_hle17_ddec_charge
 _atom_site_hle17_ddec_spin_density
 _atom_site_hle17_ddec_sum_bond_order
 _atom_site_hle17_magmom
 _atom_site_hse06_10hf_ddec_charge
 _atom_site_hse06_10hf_ddec_spin_density
 _atom_site_hse06_10hf_ddec_sum_bond_order
 _atom_site_hse06_10hf_magmom
 _atom_site_hse06_ddec_charge
 _atom_site_hse06_ddec_spin_density
 _atom_site_hse06_ddec_sum_bond_order
 _atom_site_hse06_magmom
 _atom_site_pbe_cm5_charge
 _atom_site_pbe_ddec_charge
 _atom_site_pbe_ddec_spin_density
 _atom_site_pbe_ddec_sum_bond_order
 _atom_site_pbe_magmom
Mn  Mn0  1  0.99999665  0.50000098  0.00000301  1  1.270251  4.803358  1.626914  4.696  1.116267  4.733325  2.107596  4.563  1.17417  4.771653  2.034634  4.62  0.603817  1.07287  4.691293  2.160677  4.504
Mn  Mn1  1  0.49999586  0.99999216  0.99999993  1  1.288632  4.787133  1.713738  4.689  1.146195  4.709854  2.205101  4.552  1.19878  4.749986  2.132082  4.61  0.601691  1.106806  4.667256  2.257791  4.493
H  H2  1  0.91416235  0.09147250  0.94986090  1  0.420957  -0.000421  0.881607  0.0  0.38748  0.000601  0.955329  0.001  0.399719  0.000272  0.937853  0.001  0.300494  0.378708  0.000896  0.967831  0.002
H  H3  1  0.08583566  0.90852328  0.05013961  1  0.420972  -0.000422  0.881599  0.0  0.387514  0.000601  0.955287  0.001  0.399754  0.000272  0.93781  0.001  0.300494  0.378743  0.000896  0.967787  0.002
H  H4  1  0.90678720  0.11766225  0.07951034  1  0.441326  -0.000435  0.841343  0.001  0.413033  0.00068  0.902958  0.003  0.423647  0.000233  0.887416  0.002  0.313757  0.405474  0.001111  0.91401  0.003
H  H5  1  0.09321223  0.88233348  0.92048936  1  0.441338  -0.000436  0.841346  0.001  0.413024  0.000681  0.902979  0.003  0.423639  0.000233  0.887435  0.002  0.313748  0.405464  0.001111  0.914033  0.003
H  H6  1  0.59657366  0.38595812  0.12923661  1  0.420046  -0.000474  0.890316  0.001  0.386341  0.000374  0.959092  0.002  0.397186  3.3e-05  0.943541  0.002  0.293424  0.378773  0.000704  0.969877  0.002
H  H7  1  0.40341877  0.61403434  0.87076036  1  0.419987  -0.000475  0.890392  0.001  0.386297  0.000375  0.959152  0.002  0.397143  3.3e-05  0.943599  0.002  0.293365  0.378727  0.000704  0.96994  0.002
H  H8  1  0.49361399  0.23805154  0.21190545  1  0.430381  0.000267  0.868165  0.002  0.401682  0.00093  0.928278  0.002  0.4118  0.000639  0.913354  0.002  0.296641  0.394808  0.001175  0.938373  0.003
H  H9  1  0.50638814  0.76195051  0.78809265  1  0.430415  0.000266  0.86811  0.002  0.401679  0.00093  0.92829  0.002  0.4118  0.000639  0.913368  0.002  0.296606  0.394787  0.001175  0.938402  0.003
H  H10  1  0.17232960  0.73034601  0.63648343  1  0.415581  -2.2e-05  0.778258  0.0  0.400615  -2.4e-05  0.829431  0.0  0.410423  -3.3e-05  0.819126  0.0  0.351756  0.393315  1e-06  0.837309  0.0
H  H11  1  0.82768341  0.26967553  0.36352174  1  0.415521  -2.1e-05  0.778287  0.0  0.400564  -2.3e-05  0.829431  0.0  0.410371  -3.3e-05  0.81913  0.0  0.351742  0.393262  1e-06  0.837307  0.0
H  H12  1  0.23515559  0.68263929  0.36283098  1  0.107975  -0.000163  0.945359  0.0  0.116193  -5.3e-05  1.01043  0.0  0.120247  -9.7e-05  1.006667  0.0  0.109657  0.113138  1.3e-05  1.013372  0.0
H  H13  1  0.76484854  0.31736793  0.63717485  1  0.10794  -0.000149  0.945365  0.0  0.116175  -5.3e-05  1.010411  0.0  0.120226  -9.6e-05  1.006651  0.0  0.109638  0.11312  1.3e-05  1.013354  0.0
H  H14  1  0.80823354  0.79944517  0.53656939  1  0.104368  -1.5e-05  0.943788  0.0  0.113848  3.9e-05  1.005213  0.0  0.117469  2.6e-05  1.002502  0.0  0.108138  0.111193  6.2e-05  1.00728  0.0
H  H15  1  0.19177357  0.20055518  0.46342767  1  0.104362  -4e-06  0.943749  0.0  0.113826  3.8e-05  1.005192  0.0  0.117449  2.6e-05  1.002478  0.0  0.108107  0.11117  6.2e-05  1.007255  0.0
H  H16  1  0.98859337  0.82452484  0.36455454  1  0.106444  -1.3e-05  0.943473  0.0  0.11623  2.4e-05  1.004705  0.0  0.119426  -1e-06  1.003217  0.0  0.107527  0.113807  7.4e-05  1.006147  0.0
H  H17  1  0.01140613  0.17546747  0.63544078  1  0.106488  -1.2e-05  0.943484  0.0  0.116236  2.3e-05  1.004764  0.0  0.119432  -1e-06  1.003275  0.0  0.107538  0.113815  7.4e-05  1.006205  0.0
C  C18  1  0.38294258  0.70843278  0.16539876  1  0.687964  0.011617  3.871224  0.012  0.633811  0.019608  4.166709  0.018  0.670864  0.014754  4.157994  0.014  0.229006  0.607794  0.025242  4.172088  0.022
C  C19  1  0.61705677  0.29156637  0.83460531  1  0.688003  0.011619  3.871359  0.012  0.633907  0.019604  4.166766  0.018  0.67096  0.014752  4.158047  0.014  0.229054  0.607889  0.025238  4.17215  0.022
C  C20  1  0.49995398  0.73031845  0.26844809  1  -0.074034  0.001395  3.713342  0.001  -0.059492  0.002198  3.951885  0.002  -0.066706  0.001328  3.970375  0.001  -0.008629  -0.055469  0.003011  3.940842  0.002
C  C21  1  0.50004888  0.26968205  0.73155138  1  -0.074016  0.001369  3.713227  0.001  -0.059508  0.002199  3.951815  0.002  -0.06672  0.001329  3.970301  0.001  -0.008626  -0.055484  0.003012  3.940777  0.002
C  C22  1  0.40022386  0.71443588  0.36451453  1  -0.043101  0.00131  3.673877  0.001  -0.082082  0.002445  3.925518  0.002  -0.077724  0.001673  3.941745  0.001  -0.069879  -0.084921  0.003897  3.915052  0.003
C  C23  1  0.59977894  0.28556774  0.63548296  1  -0.04305  0.001316  3.67386  0.001  -0.082014  0.002446  3.925491  0.002  -0.077654  0.00167  3.941722  0.001  -0.069825  -0.084851  0.003896  3.915027  0.003
C  C24  1  0.51238984  0.74470790  0.46157372  1  -0.098235  0.000198  3.797236  0.0  -0.075409  0.001012  4.038426  0.001  -0.086364  0.000434  4.064148  0.0  -0.024109  -0.068343  0.001871  4.021228  0.001
C  C25  1  0.48761296  0.25529572  0.53842378  1  -0.098174  0.000167  3.79737  0.0  -0.075373  0.00101  4.038554  0.001  -0.086329  0.000436  4.064278  0.0  -0.024102  -0.068305  0.001871  4.021352  0.001
C  C26  1  0.41875691  0.74621992  0.56728765  1  0.645646  0.000241  3.829558  0.0  0.593146  0.000609  4.136815  0.0  0.625223  0.000293  4.130814  0.0  0.235398  0.571169  0.001375  4.140729  0.001
C  C27  1  0.58124790  0.25378868  0.43271360  1  0.645494  0.00027  3.829969  0.0  0.593003  0.000606  4.137215  0.0  0.625079  0.000294  4.131216  0.0  0.235306  0.571026  0.001375  4.141125  0.001
C  C28  1  0.72433164  0.78144465  0.46099609  1  -0.040547  0.000713  3.718941  0.001  -0.072109  0.001383  3.977949  0.001  -0.069444  0.000946  3.996698  0.001  -0.07556  -0.073647  0.00259  3.965221  0.002
C  C29  1  0.27567412  0.21855266  0.53900455  1  -0.040594  0.000716  3.718967  0.001  -0.072122  0.001385  3.977945  0.001  -0.069459  0.000943  3.996698  0.001  -0.075568  -0.073662  0.002589  3.965225  0.002
C  C30  1  0.82402780  0.79572310  0.36540102  1  -0.09516  0.000205  3.726544  0.0  -0.118634  0.001044  3.986499  0.001  -0.122374  0.000507  4.005296  0.0  -0.087639  -0.116444  0.001541  3.97451  0.001
C  C31  1  0.17597014  0.20427592  0.63459989  1  -0.095204  0.000184  3.7266  0.0  -0.11864  0.001044  3.986564  0.001  -0.122381  0.000509  4.005363  0.0  -0.087638  -0.11645  0.001541  3.974578  0.001
C  C32  1  0.71443093  0.77501962  0.26921419  1  -0.035925  0.001624  3.689622  0.002  -0.027844  0.00293  3.931578  0.002  -0.027107  0.001878  3.947417  0.002  0.004626  -0.029097  0.00525  3.921846  0.004
C  C33  1  0.28556701  0.22497932  0.73078512  1  -0.03591  0.001647  3.689609  0.002  -0.027883  0.00293  3.931647  0.002  -0.027146  0.001874  3.947486  0.002  0.004587  -0.029134  0.005249  3.921926  0.004
C  C34  1  0.82873972  0.78247653  0.16712164  1  0.698864  0.004221  3.856523  0.005  0.633617  0.007789  4.170511  0.008  0.669674  0.005523  4.160041  0.006  0.233042  0.60891  0.010304  4.176684  0.009
C  C35  1  0.17125265  0.21751917  0.83287574  1  0.698727  0.004215  3.856501  0.005  0.633482  0.007788  4.170494  0.008  0.669542  0.005523  4.160022  0.006  0.232972  0.608763  0.010303  4.176685  0.009
O  O36  1  0.85819909  0.15547585  0.01811718  1  -0.858566  0.054293  1.958591  0.03  -0.788598  0.073685  2.194175  0.043  -0.814895  0.066832  2.152847  0.038  -0.535739  -0.768796  0.079858  2.223231  0.048
O  O37  1  0.14180108  0.84451830  0.98188311  1  -0.858563  0.054297  1.958579  0.03  -0.788608  0.073688  2.194143  0.043  -0.814906  0.066835  2.152814  0.038  -0.535714  -0.768806  0.079861  2.223201  0.048
O  O38  1  0.48830972  0.24360279  0.13508529  1  -0.853726  0.033264  1.882294  0.021  -0.795671  0.041827  2.08256  0.025  -0.819401  0.037537  2.047563  0.022  -0.580634  -0.777609  0.045683  2.106371  0.029
O  O39  1  0.51168412  0.75638966  0.86491167  1  -0.853704  0.033268  1.882232  0.021  -0.795653  0.041827  2.082512  0.025  -0.819392  0.037537  2.047503  0.022  -0.580538  -0.777563  0.045683  2.10638  0.029
O  O40  1  0.18502191  0.60397347  0.15367722  1  -0.64211  0.03294  1.986076  0.023  -0.58428  0.041219  2.242943  0.028  -0.614121  0.035972  2.228674  0.023  -0.309681  -0.562285  0.04662  2.251988  0.033
O  O41  1  0.81497530  0.39602717  0.84632389  1  -0.642103  0.032942  1.986217  0.023  -0.584298  0.041216  2.243058  0.028  -0.614138  0.03597  2.228785  0.023  -0.309664  -0.562303  0.046616  2.252105  0.033
O  O42  1  0.49511759  0.79971537  0.09676582  1  -0.662375  0.034233  2.085376  0.019  -0.59279  0.042307  2.351804  0.023  -0.624408  0.037393  2.337845  0.019  -0.304675  -0.56973  0.04703  2.36093  0.027
O  O43  1  0.50487557  0.20027562  0.90323413  1  -0.6624  0.034226  2.085403  0.019  -0.592832  0.042305  2.35181  0.023  -0.624465  0.037392  2.337879  0.019  -0.304692  -0.569769  0.047026  2.360936  0.027
O  O44  1  0.51697380  0.77555034  0.65324279  1  -0.549817  0.000112  1.995221  0.0  -0.504557  0.000531  2.213261  0.001  -0.525105  0.000206  2.205387  0.0  -0.270847  -0.491152  0.001107  2.218823  0.001
O  O45  1  0.48303787  0.22446792  0.34676040  1  -0.549805  9e-05  1.995447  0.0  -0.504584  0.000534  2.213478  0.001  -0.525131  0.000201  2.205604  0.0  -0.270833  -0.491182  0.001107  2.219048  0.001
O  O46  1  0.21614054  0.71658253  0.56188518  1  -0.532879  3e-06  2.05923  0.0  -0.487221  7.5e-05  2.268339  0.0  -0.507708  2.1e-05  2.255475  0.0  -0.32432  -0.47287  0.000224  2.277198  0.0
O  O47  1  0.78386985  0.28342947  0.43812120  1  -0.532724  3e-06  2.059256  0.0  -0.487051  7.4e-05  2.268356  0.0  -0.507544  2.4e-05  2.255496  0.0  -0.324253  -0.472698  0.000224  2.277216  0.0
O  O48  1  0.96534095  0.96082330  0.15661403  1  -0.618299  0.001156  1.954299  0.003  -0.562714  0.00337  2.171232  0.005  -0.587628  0.002048  2.15816  0.004  -0.304097  -0.54504  0.004858  2.179643  0.007
O  O49  1  0.03465498  0.03917082  0.84338470  1  -0.618247  0.001157  1.954399  0.003  -0.562557  0.003369  2.171246  0.005  -0.587472  0.002048  2.158174  0.004  -0.304005  -0.544876  0.004857  2.179665  0.007
O  O50  1  0.79019165  0.59834123  0.10194204  1  -0.654236  0.028511  2.086894  0.016  -0.575826  0.03381  2.338114  0.017  -0.60916  0.030767  2.325519  0.015  -0.290442  -0.551532  0.036236  2.346078  0.019
O  O51  1  0.20980832  0.40166257  0.89805865  1  -0.654176  0.028511  2.086705  0.016  -0.575814  0.033804  2.337969  0.017  -0.609141  0.030764  2.325354  0.015  -0.290421  -0.551514  0.03623  2.345938  0.019
