# generated using pymatgen
data_UH5C4NO6
_symmetry_space_group_name_H-M   'P 1'
_cell_length_a   6.86104014
_cell_length_b   10.17551214
_cell_length_c   10.94230294
_cell_angle_alpha   89.99996345
_cell_angle_beta   90.00010808
_cell_angle_gamma   89.99997927
_symmetry_Int_Tables_number   1
_chemical_formula_structural   UH5C4NO6
_chemical_formula_sum   'U4 H20 C16 N4 O24'
_cell_volume   763.93247290
_cell_formula_units_Z   4
loop_
 _symmetry_equiv_pos_site_id
 _symmetry_equiv_pos_as_xyz
  1  'x, y, z'
loop_
 _atom_site_type_symbol
 _atom_site_label
 _atom_site_symmetry_multiplicity
 _atom_site_fract_x
 _atom_site_fract_y
 _atom_site_fract_z
 _atom_site_occupancy
 _atom_site_hle17_bader_spin_density
 _atom_site_hle17_ddec_charge
 _atom_site_hle17_ddec_spin_density
 _atom_site_hle17_ddec_sum_bond_order
 _atom_site_hle17_magmom
 _atom_site_hse06_10hf_bader_spin_density
 _atom_site_hse06_10hf_ddec_charge
 _atom_site_hse06_10hf_ddec_spin_density
 _atom_site_hse06_10hf_ddec_sum_bond_order
 _atom_site_hse06_10hf_magmom
 _atom_site_hse06_bader_spin_density
 _atom_site_hse06_ddec_charge
 _atom_site_hse06_ddec_spin_density
 _atom_site_hse06_ddec_sum_bond_order
 _atom_site_hse06_magmom
 _atom_site_pbe_bader_spin_density
 _atom_site_pbe_cm5_charge
 _atom_site_pbe_ddec_charge
 _atom_site_pbe_ddec_spin_density
 _atom_site_pbe_ddec_sum_bond_order
 _atom_site_pbe_magmom
U  U0  1  0.83667287  0.74999923  0.75964020  1  0  2.409564  0  4.201616  0  0  2.462178  0  4.863642  0  0  2.567989  0  4.832138  0  0  2.205519  2.387624  0  4.888551  0
U  U1  1  0.33666862  0.24999990  0.74035982  1  0  2.409781  0  4.201355  0  0  2.462186  0  4.863422  0  0  2.567926  0  4.831945  0  0  2.205545  2.387556  0  4.888318  0
U  U2  1  0.16332683  0.25000009  0.24035894  1  0  2.409782  0  4.201415  0  0  2.462178  0  4.863512  0  0  2.567959  0  4.83199  0  0  2.205548  2.387577  0  4.888379  0
U  U3  1  0.66332380  0.74999943  0.25963931  1  0  2.409825  0  4.201507  0  0  2.462299  0  4.863543  0  0  2.568014  0  4.832092  0  0  2.205569  2.387672  0  4.88846  0
H  H4  1  0.26682452  0.60549463  0.49011710  1  0  0.13188  0  0.907353  0  0  0.147077  0  0.956758  0  0  0.150021  0  0.954582  0  0  0.128167  0.144894  0  0.958486  0
H  H5  1  0.76682686  0.10549533  0.00988319  1  0  0.131863  0  0.907347  0  0  0.147064  0  0.956738  0  0  0.150008  0  0.954558  0  0  0.128162  0.144878  0  0.958469  0
H  H6  1  0.26682590  0.89450514  0.49011793  1  0  0.131864  0  0.907391  0  0  0.14706  0  0.956796  0  0  0.150004  0  0.954621  0  0  0.12816  0.144876  0  0.958526  0
H  H7  1  0.76682679  0.39450486  0.00988310  1  0  0.131858  0  0.907345  0  0  0.147061  0  0.956741  0  0  0.150004  0  0.95456  0  0  0.128161  0.144874  0  0.958472  0
H  H8  1  0.73317809  0.39450469  0.50988477  1  0  0.131923  0  0.907301  0  0  0.147084  0  0.956727  0  0  0.150026  0  0.95455  0  0  0.12818  0.144902  0  0.958454  0
H  H9  1  0.23317429  0.89450694  0.99011138  1  0  0.13187  0  0.907239  0  0  0.147064  0  0.956659  0  0  0.150012  0  0.954476  0  0  0.128169  0.144884  0  0.958386  0
H  H10  1  0.73317817  0.10549516  0.50988486  1  0  0.131874  0  0.907297  0  0  0.147044  0  0.956728  0  0  0.149986  0  0.954551  0  0  0.128166  0.144864  0  0.958457  0
H  H11  1  0.23317437  0.60549348  0.99011055  1  0  0.131869  0  0.907253  0  0  0.147065  0  0.956673  0  0  0.150012  0  0.95449  0  0  0.128161  0.144883  0  0.9584  0
H  H12  1  0.33762741  0.64149964  0.64141527  1  0  0.137123  0  0.913538  0  0  0.15283  0  0.968047  0  0  0.155255  0  0.966106  0  0  0.138743  0.150915  0  0.969774  0
H  H13  1  0.83762493  0.14149912  0.85858390  1  0  0.137122  0  0.913522  0  0  0.152839  0  0.968003  0  0  0.155261  0  0.966065  0  0  0.138761  0.150921  0  0.969734  0
H  H14  1  0.33762735  0.85850100  0.64141520  1  0  0.137137  0  0.913529  0  0  0.152843  0  0.96804  0  0  0.155269  0  0.966098  0  0  0.138752  0.150929  0  0.969766  0
H  H15  1  0.83762487  0.35850048  0.85858384  1  0  0.137106  0  0.913542  0  0  0.152839  0  0.968011  0  0  0.15526  0  0.966073  0  0  0.138747  0.150921  0  0.969738  0
H  H16  1  0.66237375  0.35850067  0.35858661  1  0  0.137122  0  0.913574  0  0  0.152861  0  0.968016  0  0  0.155284  0  0.966071  0  0  0.13875  0.150945  0  0.969746  0
H  H17  1  0.16237331  0.85850021  0.14141158  1  0  0.1371  0  0.913577  0  0  0.152848  0  0.968023  0  0  0.155273  0  0.966081  0  0  0.138741  0.15093  0  0.969759  0
H  H18  1  0.66237381  0.14149931  0.35858667  1  0  0.137103  0  0.913561  0  0  0.15284  0  0.968019  0  0  0.155262  0  0.966076  0  0  0.138745  0.150924  0  0.96975  0
H  H19  1  0.16237337  0.64149983  0.14141164  1  0  0.137119  0  0.913571  0  0  0.152869  0  0.968016  0  0  0.155294  0  0.966073  0  0  0.138743  0.150951  0  0.969751  0
H  H20  1  0.00395474  0.75000040  0.50743227  1  0  0.267712  0  0.911525  0  0  0.260817  0  0.971489  0  0  0.267065  0  0.967862  0  0  0.309936  0.255975  0  0.974779  0
H  H21  1  0.50395411  0.24999979  0.99256826  1  0  0.26771  0  0.911506  0  0  0.260816  0  0.971497  0  0  0.267064  0  0.967871  0  0  0.309932  0.255967  0  0.974791  0
H  H22  1  0.99604787  0.24999990  0.49256778  1  0  0.267691  0  0.911529  0  0  0.260808  0  0.971505  0  0  0.267054  0  0.967882  0  0  0.30992  0.255962  0  0.974802  0
H  H23  1  0.49604559  0.75000052  0.00742996  1  0  0.267763  0  0.911397  0  0  0.260871  0  0.971375  0  0  0.267119  0  0.96775  0  0  0.309972  0.256027  0  0.974671  0
C  C24  1  0.09471091  0.51511586  0.63175723  1  0  0.737776  0  3.782957  0  0  0.700868  0  4.090308  0  0  0.740317  0  4.076427  0  0  0.254004  0.673925  0  4.098337  0
C  C25  1  0.59469971  0.01512418  0.86824081  1  0  0.737915  0  3.782844  0  0  0.70092  0  4.090276  0  0  0.740376  0  4.076378  0  0  0.254075  0.673977  0  4.098315  0
C  C26  1  0.09471078  0.98488484  0.63175709  1  0  0.737775  0  3.782886  0  0  0.700841  0  4.090281  0  0  0.740293  0  4.076396  0  0  0.253988  0.673899  0  4.098313  0
C  C27  1  0.59469959  0.48487547  0.86824067  1  0  0.73785  0  3.782848  0  0  0.700861  0  4.090283  0  0  0.740315  0  4.076387  0  0  0.254049  0.673914  0  4.098318  0
C  C28  1  0.90530045  0.48487560  0.36824099  1  0  0.737951  0  3.782877  0  0  0.700987  0  4.090247  0  0  0.740439  0  4.076351  0  0  0.25412  0.674044  0  4.098282  0
C  C29  1  0.40529124  0.98488399  0.13175559  1  0  0.73794  0  3.782861  0  0  0.700905  0  4.090393  0  0  0.740351  0  4.076516  0  0  0.254012  0.673961  0  4.098429  0
C  C30  1  0.90530058  0.01512431  0.36824113  1  0  0.737974  0  3.782859  0  0  0.701005  0  4.090253  0  0  0.740458  0  4.076358  0  0  0.254128  0.674058  0  4.098295  0
C  C31  1  0.40528991  0.51511698  0.13175572  1  0  0.737909  0  3.782825  0  0  0.700911  0  4.090292  0  0  0.740367  0  4.076398  0  0  0.254013  0.673968  0  4.098326  0
C  C32  1  0.21006212  0.62907081  0.58139584  1  0  -0.151052  0  3.625859  0  0  -0.199138  0  3.8727  0  0  -0.200956  0  3.878707  0  0  -0.05447  -0.197905  0  3.868264  0
C  C33  1  0.71006419  0.12907222  0.91860319  1  0  -0.151081  0  3.625789  0  0  -0.199109  0  3.872625  0  0  -0.200922  0  3.878618  0  0  -0.054508  -0.19788  0  3.868191  0
C  C34  1  0.21006059  0.87092891  0.58139485  1  0  -0.151036  0  3.625941  0  0  -0.199106  0  3.872774  0  0  -0.200929  0  3.878791  0  0  -0.054451  -0.197873  0  3.868338  0
C  C35  1  0.71006266  0.37092737  0.91860403  1  0  -0.150995  0  3.625819  0  0  -0.199044  0  3.872667  0  0  -0.200852  0  3.878653  0  0  -0.054449  -0.197814  0  3.86823  0
C  C36  1  0.78994050  0.37092753  0.41860421  1  0  -0.151118  0  3.625888  0  0  -0.199114  0  3.872669  0  0  -0.200917  0  3.878646  0  0  -0.054487  -0.197885  0  3.868232  0
C  C37  1  0.28993843  0.87092809  0.08139686  1  0  -0.151034  0  3.625781  0  0  -0.199082  0  3.872624  0  0  -0.2009  0  3.878635  0  0  -0.054451  -0.197853  0  3.86819  0
C  C38  1  0.78994056  0.12907238  0.41860337  1  0  -0.151024  0  3.625779  0  0  -0.199051  0  3.872619  0  0  -0.200853  0  3.878596  0  0  -0.054471  -0.197824  0  3.868186  0
C  C39  1  0.28993849  0.62907196  0.08139602  1  0  -0.151101  0  3.625801  0  0  -0.199162  0  3.872638  0  0  -0.200983  0  3.878647  0  0  -0.054466  -0.19793  0  3.868202  0
N  N40  1  0.09220969  0.75000135  0.58322989  1  0  -0.411744  0  3.277843  0  0  -0.386962  0  3.557643  0  0  -0.407165  0  3.575649  0  0  -0.519204  -0.372164  0  3.544671  0
N  N41  1  0.59221176  0.24999981  0.91676983  1  0  -0.411749  0  3.277871  0  0  -0.38704  0  3.557735  0  0  -0.407251  0  3.575743  0  0  -0.519216  -0.372232  0  3.544751  0
N  N42  1  0.90779001  0.24999994  0.41676924  1  0  -0.411768  0  3.277927  0  0  -0.387088  0  3.557796  0  0  -0.407305  0  3.575802  0  0  -0.51923  -0.372284  0  3.544819  0
N  N43  1  0.40778649  0.75000050  0.08322931  1  0  -0.411814  0  3.277856  0  0  -0.387088  0  3.557721  0  0  -0.40729  0  3.575729  0  0  -0.519279  -0.372284  0  3.544749  0
O  O44  1  0.64546409  0.75000028  0.64585599  1  0  -0.693046  0  1.574308  0  0  -0.709714  0  1.869114  0  0  -0.729783  0  1.85522  0  0  -0.749428  -0.696949  0  1.879665  0
O  O45  1  0.14546016  0.24999988  0.85414745  1  0  -0.693126  0  1.57422  0  0  -0.70973  0  1.869019  0  0  -0.729774  0  1.855129  0  0  -0.749388  -0.696946  0  1.879568  0
O  O46  1  0.35453998  0.25000003  0.35414680  1  0  -0.69311  0  1.574169  0  0  -0.709724  0  1.868979  0  0  -0.72978  0  1.855082  0  0  -0.74936  -0.696948  0  1.879524  0
O  O47  1  0.85453516  0.74999944  0.14585534  1  0  -0.693125  0  1.574296  0  0  -0.709758  0  1.869094  0  0  -0.729794  0  1.855202  0  0  -0.749401  -0.696964  0  1.879645  0
O  O48  1  0.04896883  0.75000028  0.85769768  1  0  -0.686528  0  1.557832  0  0  -0.694177  0  1.836143  0  0  -0.715679  0  1.823722  0  0  -0.754703  -0.680514  0  1.845473  0
O  O49  1  0.54896427  0.24999991  0.64230290  1  0  -0.686516  0  1.55773  0  0  -0.694102  0  1.836053  0  0  -0.715574  0  1.823642  0  0  -0.754653  -0.680418  0  1.845391  0
O  O50  1  0.95103524  0.25000003  0.14230328  1  0  -0.686518  0  1.557765  0  0  -0.69412  0  1.836108  0  0  -0.715601  0  1.823687  0  0  -0.754711  -0.680445  0  1.845441  0
O  O51  1  0.45103397  0.75000040  0.35769715  1  0  -0.686581  0  1.557774  0  0  -0.694174  0  1.836067  0  0  -0.715638  0  1.823657  0  0  -0.754735  -0.680481  0  1.845404  0
O  O52  1  0.93643612  0.53919413  0.68767832  1  0  -0.633512  0  2.021551  0  0  -0.616035  0  2.283592  0  0  -0.651022  0  2.278382  0  0  -0.342226  -0.590799  0  2.285845  0
O  O53  1  0.43644228  0.03919475  0.81232834  1  0  -0.633511  0  2.021896  0  0  -0.61599  0  2.283976  0  0  -0.650972  0  2.278761  0  0  -0.342227  -0.590757  0  2.286227  0
O  O54  1  0.93643601  0.96080731  0.68767820  1  0  -0.633501  0  2.021507  0  0  -0.616024  0  2.283569  0  0  -0.651012  0  2.278358  0  0  -0.342216  -0.590786  0  2.285819  0
O  O55  1  0.43644217  0.46080596  0.81232822  1  0  -0.633494  0  2.021897  0  0  -0.615966  0  2.283967  0  0  -0.650947  0  2.278753  0  0  -0.342229  -0.590732  0  2.286221  0
O  O56  1  0.06355920  0.46080519  0.31232812  1  0  -0.633524  0  2.021834  0  0  -0.616025  0  2.283918  0  0  -0.651018  0  2.278721  0  0  -0.342243  -0.590783  0  2.286147  0
O  O57  1  0.56355888  0.96080654  0.18767628  1  0  -0.633569  0  2.021591  0  0  -0.616049  0  2.283687  0  0  -0.651028  0  2.278482  0  0  -0.342222  -0.590809  0  2.28593  0
O  O58  1  0.06355932  0.03919595  0.31232825  1  0  -0.633529  0  2.021842  0  0  -0.616016  0  2.283907  0  0  -0.651005  0  2.278698  0  0  -0.342236  -0.590773  0  2.286138  0
O  O59  1  0.56356045  0.53919435  0.18767731  1  0  -0.633578  0  2.021579  0  0  -0.616075  0  2.283668  0  0  -0.651056  0  2.278454  0  0  -0.342249  -0.590839  0  2.285924  0
O  O60  1  0.16215258  0.39931431  0.61668735  1  0  -0.665255  0  2.019378  0  0  -0.651711  0  2.294147  0  0  -0.684862  0  2.283344  0  0  -0.37033  -0.628044  0  2.301799  0
O  O61  1  0.66216011  0.89931258  0.88331420  1  0  -0.66533  0  2.019047  0  0  -0.651786  0  2.293868  0  0  -0.68495  0  2.283062  0  0  -0.37034  -0.62812  0  2.301527  0
O  O62  1  0.16215266  0.10068561  0.61668744  1  0  -0.665246  0  2.019348  0  0  -0.651689  0  2.294125  0  0  -0.684841  0  2.283321  0  0  -0.370319  -0.628025  0  2.301783  0
O  O63  1  0.66216165  0.60068781  0.88331429  1  0  -0.665319  0  2.018954  0  0  -0.651786  0  2.293775  0  0  -0.684949  0  2.282971  0  0  -0.370356  -0.628125  0  2.301448  0
O  O64  1  0.83784129  0.60068698  0.38331270  1  0  -0.66537  0  2.019081  0  0  -0.651818  0  2.293862  0  0  -0.68497  0  2.283057  0  0  -0.37038  -0.628157  0  2.301542  0
O  O65  1  0.33784542  0.10068576  0.11668585  1  0  -0.665347  0  2.019333  0  0  -0.651733  0  2.294141  0  0  -0.684892  0  2.283341  0  0  -0.370316  -0.628055  0  2.301762  0
O  O66  1  0.83784266  0.89931371  0.38331261  1  0  -0.665414  0  2.019117  0  0  -0.651851  0  2.293882  0  0  -0.685006  0  2.283079  0  0  -0.370392  -0.628182  0  2.301546  0
O  O67  1  0.33784534  0.39931348  0.11668576  1  0  -0.665285  0  2.019213  0  0  -0.6517  0  2.294035  0  0  -0.68486  0  2.283228  0  0  -0.370297  -0.628021  0  2.301654  0
