# generated using pymatgen
data_Yb2MnH28(C8O9)2
_symmetry_space_group_name_H-M   'P 1'
_cell_length_a   8.79921103
_cell_length_b   9.19893822
_cell_length_c   10.53057678
_cell_angle_alpha   81.65489711
_cell_angle_beta   71.51262457
_cell_angle_gamma   77.72622434
_symmetry_Int_Tables_number   1
_chemical_formula_structural   Yb2MnH28(C8O9)2
_chemical_formula_sum   'Yb2 Mn1 H28 C16 O18'
_cell_volume   787.13162575
_cell_formula_units_Z   1
loop_
 _symmetry_equiv_pos_site_id
 _symmetry_equiv_pos_as_xyz
  1  'x, y, z'
loop_
 _atom_site_type_symbol
 _atom_site_label
 _atom_site_symmetry_multiplicity
 _atom_site_fract_x
 _atom_site_fract_y
 _atom_site_fract_z
 _atom_site_occupancy
 _atom_site_hle17_ddec_charge
 _atom_site_hle17_ddec_spin_density
 _atom_site_hle17_ddec_sum_bond_order
 _atom_site_hle17_magmom
 _atom_site_hse06_10hf_ddec_charge
 _atom_site_hse06_10hf_ddec_spin_density
 _atom_site_hse06_10hf_ddec_sum_bond_order
 _atom_site_hse06_10hf_magmom
 _atom_site_hse06_ddec_charge
 _atom_site_hse06_ddec_spin_density
 _atom_site_hse06_ddec_sum_bond_order
 _atom_site_hse06_magmom
 _atom_site_pbe_cm5_charge
 _atom_site_pbe_ddec_charge
 _atom_site_pbe_ddec_spin_density
 _atom_site_pbe_ddec_sum_bond_order
 _atom_site_pbe_magmom
Yb  Yb0  1  0.90858080  0.07413889  0.68555524  1  2.142793  0.00152  1.781084  0.0  2.069772  0.00131  2.09241  -0.001  2.217736  0.001699  1.871629  -0.001  1.579213  2.031499  0.000904  2.122561  -0.002
Yb  Yb1  1  0.09141914  0.92586755  0.31444448  1  2.142923  0.001523  1.780729  0.0  2.069868  0.001311  2.092085  -0.001  2.217794  0.001702  1.871377  -0.001  1.579183  2.031624  0.000906  2.122224  -0.002
Mn  Mn2  1  0.99999291  0.99998195  0.00000441  1  1.276115  -4.770352  1.807591  -4.673  1.130134  -4.687067  2.315713  -4.53  1.184099  -4.734903  2.248571  -4.596  0.623411  1.088639  -4.636301  2.36989  -4.462
H  H3  1  0.82574576  0.35867644  0.05061201  1  0.145618  0.000188  0.925549  0.0  0.163656  0.000186  0.98195  0.0  0.166885  0.000207  0.979677  0.0  0.104021  0.161262  0.000158  0.983531  0.0
H  H4  1  0.17428339  0.64129744  0.94937966  1  0.145702  0.000187  0.925562  0.0  0.163707  0.000186  0.981959  0.0  0.166933  0.000207  0.979689  0.0  0.104057  0.161312  0.000158  0.98354  0.0
H  H5  1  0.62340152  0.39857865  0.03364086  1  0.135893  -0.000161  0.938573  0.0  0.154832  -0.000293  0.998184  0.0  0.157343  -0.000195  0.996751  0.0  0.102049  0.152973  -0.000417  0.999112  0.0
H  H6  1  0.37661550  0.60141256  0.96636523  1  0.135893  -0.000164  0.938565  0.0  0.154847  -0.000293  0.99817  0.0  0.157358  -0.000196  0.996742  0.0  0.102027  0.152986  -0.000418  0.999097  0.0
H  H7  1  0.77156380  0.50292144  0.93116149  1  0.133973  -0.00014  0.956783  0.0  0.154424  -0.000285  1.017875  0.0  0.15579  -0.00018  1.018381  0.0  0.103529  0.15337  -0.000421  1.017481  0.0
H  H8  1  0.22845042  0.49708277  0.06882785  1  0.134018  -0.000143  0.956813  0.0  0.154461  -0.000285  1.017909  0.0  0.155823  -0.00018  1.018415  0.0  0.103562  0.153409  -0.000421  1.01751  0.0
H  H9  1  0.73526565  0.72779672  0.07329002  1  0.140744  0.00016  0.923903  0.0  0.161256  0.000181  0.97691  0.0  0.164083  0.00018  0.975052  0.0  0.101855  0.159139  0.000175  0.97822  0.0
H  H10  1  0.26471596  0.27218540  0.92670906  1  0.140791  0.000157  0.923993  0.0  0.161217  0.00018  0.977099  0.0  0.164041  0.00018  0.975244  0.0  0.101835  0.159101  0.000175  0.978408  0.0
H  H11  1  0.58714092  0.73701597  0.98552564  1  0.133689  -0.000104  0.942318  0.0  0.152845  -0.000222  1.003868  0.0  0.154726  -0.000128  1.003388  0.0  0.100357  0.151443  -0.000347  1.004045  0.0
H  H12  1  0.41283635  0.26298659  0.01445977  1  0.13366  -0.000107  0.942267  0.0  0.152832  -0.000222  1.003796  0.0  0.154707  -0.000128  1.003323  0.0  0.100333  0.151432  -0.000347  1.003969  0.0
H  H13  1  0.56499572  0.87870048  0.08851640  1  0.176332  -0.000235  0.934624  0.0  0.19264  -0.000478  0.99325  -0.001  0.196933  -0.000297  0.990374  0.0  0.112945  0.189589  -0.000704  0.995069  -0.001
H  H14  1  0.43498995  0.12131019  0.91147580  1  0.176271  -0.00024  0.934977  0.0  0.192652  -0.000478  0.993464  -0.001  0.196943  -0.000296  0.99059  0.0  0.112971  0.18961  -0.000704  0.995267  -0.001
H  H15  1  0.48716703  0.87561426  0.56429089  1  0.137372  -0.000253  0.945815  0.0  0.157117  -0.000401  1.002423  0.0  0.15992  -0.00032  1.000622  0.0  0.097558  0.155325  -0.000485  1.003229  0.0
H  H16  1  0.51282279  0.12441540  0.43570033  1  0.137415  -0.000253  0.945852  0.0  0.157155  -0.0004  1.002424  0.0  0.159959  -0.00032  1.000623  0.0  0.097529  0.155361  -0.000485  1.003229  0.0
H  H17  1  0.46333205  0.74138346  0.70670424  1  0.12924  -6.5e-05  0.938848  0.0  0.149173  -0.000261  0.997902  0.0  0.150976  -0.000184  0.997482  0.0  0.099976  0.147978  -0.000348  0.998077  0.0
H  H18  1  0.53670892  0.25862484  0.29327738  1  0.129259  -6.7e-05  0.938658  0.0  0.149143  -0.000261  0.997769  0.0  0.150944  -0.000184  0.997352  0.0  0.100016  0.14795  -0.000348  0.997948  0.0
H  H19  1  0.52941413  0.90864250  0.71328869  1  0.168946  3.5e-05  0.956196  0.0  0.184408  -0.000111  1.017508  0.0  0.188287  -6e-05  1.015191  0.0  0.107576  0.181824  -0.000169  1.018892  0.0
H  H20  1  0.47056551  0.09139161  0.28671281  1  0.169297  3.8e-05  0.956249  0.0  0.184661  -0.000111  1.017597  0.0  0.188557  -6e-05  1.015261  0.0  0.107679  0.182077  -0.000169  1.018977  0.0
H  H21  1  0.10983378  0.47339092  0.37125182  1  0.162993  -0.0  0.9568  0.0  0.177729  -2.1e-05  1.017364  0.0  0.181902  -1.4e-05  1.014203  0.0  0.10109  0.174997  -2.5e-05  1.018993  0.0
H  H22  1  0.89017630  0.52661385  0.62875258  1  0.163063  4e-06  0.956763  0.0  0.177794  -2.1e-05  1.017315  0.0  0.181973  -1.4e-05  1.014158  0.0  0.101107  0.175062  -2.5e-05  1.018948  0.0
H  H23  1  0.08238840  0.35714955  0.25961408  1  0.142713  6.9e-05  0.930078  0.0  0.163148  0.0  0.984867  0.0  0.165584  3.7e-05  0.983702  0.0  0.104794  0.161424  -4.5e-05  0.985543  0.0
H  H24  1  0.91760953  0.64284901  0.74039660  1  0.142664  7.4e-05  0.930081  0.0  0.163134  -0.0  0.984838  0.0  0.165573  3.7e-05  0.983673  0.0  0.104767  0.161404  -4.5e-05  0.985515  0.0
H  H25  1  0.26790104  0.32347378  0.29945922  1  0.13778  -7e-06  0.949653  0.0  0.156752  -2.5e-05  1.011777  0.0  0.158634  -1.2e-05  1.011361  0.0  0.103068  0.155491  -3.9e-05  1.011767  0.0
H  H26  1  0.73211088  0.67651767  0.70055499  1  0.137803  4e-06  0.949516  0.0  0.156774  -2.5e-05  1.011659  0.0  0.158661  -1.1e-05  1.01124  0.0  0.103066  0.15551  -3.9e-05  1.011654  0.0
H  H27  1  0.75070281  0.11443269  0.47768926  1  0.439268  -3e-06  0.866837  0.0  0.40515  -1.9e-05  0.935454  0.0  0.41727  -1.9e-05  0.918329  0.0  0.298785  0.396828  -2.5e-05  0.947427  0.0
H  H28  1  0.24930684  0.88556474  0.52231111  1  0.439324  -3e-06  0.86675  0.0  0.405199  -1.9e-05  0.935384  0.0  0.417322  -1.9e-05  0.918252  0.0  0.298809  0.396875  -2.5e-05  0.94736  0.0
H  H29  1  0.67431895  0.25968232  0.56416973  1  0.443874  4e-06  0.8016  0.0  0.431863  -6e-06  0.843312  0.0  0.440014  -2e-06  0.832148  0.0  0.340839  0.426442  -2.3e-05  0.850837  0.0
H  H30  1  0.32568959  0.74031034  0.43583363  1  0.443933  4e-06  0.801477  0.0  0.431907  -7e-06  0.84324  0.0  0.440062  -2e-06  0.832068  0.0  0.340838  0.426485  -2.3e-05  0.850743  0.0
C  C31  1  0.80410702  0.28365318  0.87352769  1  0.77465  -0.0058  3.792227  -0.006  0.7354  -0.009436  4.090254  -0.009  0.769339  -0.006593  4.090094  -0.007  0.208799  0.710939  -0.012749  4.096316  -0.012
C  C32  1  0.19587277  0.71631196  0.12649422  1  0.774915  -0.005786  3.792417  -0.006  0.735804  -0.00944  4.09021  -0.009  0.769747  -0.006594  4.090044  -0.007  0.209055  0.711344  -0.012755  4.096274  -0.012
C  C33  1  0.27511984  0.93201062  0.73630014  1  0.806163  -0.004424  3.762047  -0.005  0.765753  -0.007823  4.052089  -0.008  0.801557  -0.006065  4.044848  -0.006  0.241523  0.741476  -0.009586  4.057222  -0.009
C  C34  1  0.72488125  0.06801537  0.26369371  1  0.80638  -0.004429  3.762028  -0.005  0.765972  -0.007822  4.052021  -0.008  0.801811  -0.006067  4.044733  -0.006  0.241602  0.741701  -0.009587  4.057146  -0.009
C  C35  1  0.75360055  0.39146446  0.98002802  1  -0.442975  0.000558  3.644326  0.0  -0.518871  0.000127  3.874216  0.0  -0.52458  0.0003  3.875076  0.0  -0.234607  -0.514124  -3.6e-05  3.87305  0.0
C  C36  1  0.24640495  0.60854231  0.01997852  1  -0.443218  0.000573  3.644765  0.0  -0.519115  0.000124  3.874659  0.0  -0.524824  0.0003  3.875516  0.0  -0.234689  -0.514368  -3.7e-05  3.873496  0.0
C  C37  1  0.07037668  0.25191417  0.45552745  1  0.800331  -0.000103  3.796253  0.0  0.764571  -0.000202  4.088745  0.0  0.799631  -0.000123  4.086529  0.0  0.218036  0.740909  -0.000275  4.095659  0.0
C  C38  1  0.92961134  0.74809373  0.54447960  1  0.800631  -0.000104  3.79585  0.0  0.76505  -0.0002  4.088068  0.0  0.800113  -0.000124  4.085842  0.0  0.218255  0.741385  -0.000275  4.094989  0.0
C  C39  1  0.75063231  0.89120389  0.90302003  1  0.758643  -0.007696  3.822716  -0.008  0.715919  -0.012191  4.128327  -0.011  0.7499  -0.008796  4.128727  -0.008  0.206356  0.691244  -0.016142  4.134465  -0.014
C  C40  1  0.24936328  0.10879067  0.09697674  1  0.758627  -0.0077  3.822681  -0.008  0.715846  -0.012181  4.128394  -0.011  0.749834  -0.008789  4.128783  -0.008  0.206261  0.691169  -0.016131  4.134531  -0.014
C  C41  1  0.65610427  0.80147265  0.01986976  1  -0.453895  0.000702  3.637963  0.0  -0.530772  8.3e-05  3.872967  0.0  -0.53717  0.000331  3.872107  0.0  -0.241021  -0.525459  -0.000168  3.872822  0.0
C  C42  1  0.34388001  0.19851958  0.98011836  1  -0.453885  0.000734  3.638372  0.0  -0.530734  8.3e-05  3.873357  0.0  -0.537129  0.000333  3.872498  0.0  -0.241038  -0.525424  -0.000167  3.873202  0.0
C  C43  1  0.45008894  0.86153099  0.67429845  1  -0.476788  -0.001037  3.644813  -0.001  -0.552992  -0.001268  3.874561  -0.001  -0.560093  -0.000926  3.874459  -0.001  -0.246829  -0.547535  -0.001609  3.873148  -0.001
C  C44  1  0.54990434  0.13846156  0.32569638  1  -0.47727  -0.001032  3.644907  -0.001  -0.553351  -0.001269  3.874717  -0.001  -0.560469  -0.000923  3.874571  -0.001  -0.246961  -0.547892  -0.001609  3.873306  -0.001
C  C45  1  0.13586629  0.36002667  0.34015921  1  -0.459162  -7.2e-05  3.627035  0.0  -0.532389  -0.000172  3.851132  0.0  -0.538793  -0.000119  3.850454  0.0  -0.242153  -0.527127  -0.000219  3.849916  0.0
C  C46  1  0.86414757  0.63996944  0.65984302  1  -0.459256  -9.8e-05  3.626848  0.0  -0.532569  -0.000171  3.850928  0.0  -0.538994  -0.000119  3.850253  0.0  -0.242156  -0.527305  -0.000219  3.84972  0.0
O  O47  1  0.23097994  0.95084812  0.86001997  1  -0.646224  -0.031896  2.005571  -0.019  -0.574739  -0.036507  2.253045  -0.02  -0.606419  -0.03316  2.241221  -0.017  -0.298212  -0.551006  -0.039709  2.260187  -0.023
O  O48  1  0.76900546  0.04913811  0.13998202  1  -0.646373  -0.031892  2.005582  -0.019  -0.574808  -0.036504  2.25295  -0.02  -0.60654  -0.033159  2.24115  -0.017  -0.298273  -0.551067  -0.039705  2.26008  -0.023
O  O49  1  0.17999816  0.96641706  0.66096100  1  -0.753818  -0.001385  2.064535  -0.002  -0.701473  -0.003047  2.298044  -0.004  -0.742417  -0.002176  2.28266  -0.003  -0.386745  -0.681844  -0.003871  2.305015  -0.005
O  O50  1  0.81999352  0.03358372  0.33903992  1  -0.753777  -0.001389  2.064544  -0.002  -0.70147  -0.003047  2.29807  -0.004  -0.742412  -0.002177  2.282668  -0.003  -0.386732  -0.681844  -0.00387  2.305042  -0.005
O  O51  1  0.01724271  0.28839776  0.57525647  1  -0.68832  0.000103  1.953856  0.0  -0.650269  -2.8e-05  2.175981  0.0  -0.685887  4.9e-05  2.163491  0.0  -0.376359  -0.633142  -8.6e-05  2.181945  0.0
O  O52  1  0.98275632  0.71160558  0.42475122  1  -0.688507  0.000103  1.95364  0.0  -0.65049  -2.8e-05  2.175674  0.0  -0.686104  4.7e-05  2.163176  0.0  -0.376487  -0.633371  -8.6e-05  2.181646  0.0
O  O53  1  0.90553795  0.88577179  0.88061625  1  -0.77034  -0.026513  2.051084  -0.012  -0.719487  -0.033841  2.321618  -0.015  -0.758295  -0.030861  2.307998  -0.013  -0.373783  -0.698044  -0.036894  2.331375  -0.018
O  O54  1  0.09444892  0.11423411  0.11939878  1  -0.770412  -0.026501  2.051019  -0.012  -0.719503  -0.03383  2.32147  -0.015  -0.758318  -0.030853  2.307863  -0.013  -0.373779  -0.698082  -0.036881  2.331274  -0.018
O  O55  1  0.68104554  0.97557297  0.82344049  1  -0.685609  -0.00474  1.998075  -0.006  -0.641595  -0.007791  2.229315  -0.009  -0.678635  -0.00595  2.220479  -0.007  -0.377548  -0.623601  -0.009744  2.234232  -0.011
O  O56  1  0.31895896  0.02443825  0.17655615  1  -0.685621  -0.004732  1.998092  -0.006  -0.641554  -0.007785  2.229329  -0.009  -0.678581  -0.005945  2.220482  -0.007  -0.377448  -0.623582  -0.009736  2.234308  -0.011
O  O57  1  0.93584738  0.18386171  0.86343104  1  -0.778328  -0.028726  2.085837  -0.013  -0.72302  -0.036016  2.355379  -0.017  -0.763974  -0.033064  2.339716  -0.015  -0.396931  -0.701039  -0.038942  2.365682  -0.019
O  O58  1  0.06417197  0.81613550  0.13656109  1  -0.778344  -0.028745  2.085852  -0.013  -0.723095  -0.036035  2.355385  -0.017  -0.764046  -0.033081  2.339715  -0.015  -0.397009  -0.701115  -0.038964  2.365699  -0.019
O  O59  1  0.71860586  0.15377980  0.56929099  1  -0.890471  -5.6e-05  1.895391  0.0  -0.851841  -0.000122  2.076672  0.0  -0.883075  -9e-05  2.037803  0.0  -0.641606  -0.838404  -0.000182  2.09707  0.0
O  O60  1  0.28139848  0.84621420  0.43071050  1  -0.890587  -5.7e-05  1.895185  0.0  -0.851944  -0.000122  2.076463  0.0  -0.883176  -9e-05  2.0376  0.0  -0.641622  -0.838505  -0.000182  2.096834  0.0
O  O61  1  0.72376015  0.28834878  0.79233526  1  -0.670014  -0.004757  1.904844  -0.006  -0.63435  -0.007663  2.124898  -0.009  -0.66867  -0.005953  2.115391  -0.007  -0.367837  -0.617296  -0.00959  2.130524  -0.01
O  O62  1  0.27625349  0.71164565  0.20765203  1  -0.670182  -0.004774  1.904914  -0.006  -0.634565  -0.007664  2.124891  -0.009  -0.668884  -0.005958  2.11539  -0.007  -0.367989  -0.617506  -0.009593  2.130513  -0.01
O  O63  1  0.06543790  0.11892707  0.43343570  1  -0.833109  -2e-06  2.140867  0.0  -0.789678  -0.000124  2.395843  0.0  -0.840542  -6.6e-05  2.383765  0.0  -0.460412  -0.769847  -0.000237  2.401718  0.0
O  O64  1  0.93455592  0.88107805  0.56657614  1  -0.833216  3e-06  2.140734  0.0  -0.789889  -0.000125  2.395699  0.0  -0.840736  -6.5e-05  2.383572  0.0  -0.460505  -0.770058  -0.000237  2.401569  0.0
