# generated using pymatgen
data_BaH4(C2O3)2
_symmetry_space_group_name_H-M   'P 1'
_cell_length_a   7.30033545
_cell_length_b   8.26452807
_cell_length_c   10.27991519
_cell_angle_alpha   89.99926940
_cell_angle_beta   89.99983319
_cell_angle_gamma   90.72146679
_symmetry_Int_Tables_number   1
_chemical_formula_structural   BaH4(C2O3)2
_chemical_formula_sum   'Ba4 H16 C16 O24'
_cell_volume   620.17745706
_cell_formula_units_Z   4
loop_
 _symmetry_equiv_pos_site_id
 _symmetry_equiv_pos_as_xyz
  1  'x, y, z'
loop_
 _atom_site_type_symbol
 _atom_site_label
 _atom_site_symmetry_multiplicity
 _atom_site_fract_x
 _atom_site_fract_y
 _atom_site_fract_z
 _atom_site_occupancy
 _atom_site_hle17_bader_spin_density
 _atom_site_hle17_ddec_charge
 _atom_site_hle17_ddec_spin_density
 _atom_site_hle17_ddec_sum_bond_order
 _atom_site_hle17_magmom
 _atom_site_hse06_10hf_bader_spin_density
 _atom_site_hse06_10hf_ddec_charge
 _atom_site_hse06_10hf_ddec_spin_density
 _atom_site_hse06_10hf_ddec_sum_bond_order
 _atom_site_hse06_10hf_magmom
 _atom_site_hse06_bader_spin_density
 _atom_site_hse06_ddec_charge
 _atom_site_hse06_ddec_spin_density
 _atom_site_hse06_ddec_sum_bond_order
 _atom_site_hse06_magmom
 _atom_site_pbe_bader_spin_density
 _atom_site_pbe_cm5_charge
 _atom_site_pbe_ddec_charge
 _atom_site_pbe_ddec_spin_density
 _atom_site_pbe_ddec_sum_bond_order
 _atom_site_pbe_magmom
Ba  Ba0  1  0.09528146  0.26104529  0.38444435  1  0  1.645038  0  1.15028  0  0  1.486484  0  1.555892  0  0  1.530215  0  1.510831  0  0  0.953242  1.453506  0  1.588197  0
Ba  Ba1  1  0.40471872  0.73895356  0.88444572  1  0  1.645049  0  1.150294  0  0  1.48654  0  1.555827  0  0  1.530267  0  1.510769  0  0  0.953249  1.453562  0  1.588133  0
Ba  Ba2  1  0.90471210  0.73895167  0.61555291  1  0  1.645046  0  1.150301  0  0  1.486493  0  1.555913  0  0  1.530225  0  1.510849  0  0  0.953231  1.453515  0  1.588218  0
Ba  Ba3  1  0.59528181  0.26104942  0.11555154  1  0  1.645075  0  1.1503  0  0  1.486515  0  1.555892  0  0  1.530245  0  1.510831  0  0  0.953243  1.453535  0  1.588193  0
H  H4  1  0.24972633  0.03759880  0.05791929  1  0  0.362426  0  0.942789  0  0  0.335778  0  1.018639  0  0  0.347806  0  1.005229  0  0  0.302211  0.327221  0  1.028074  0
H  H5  1  0.25027242  0.96239923  0.55791870  1  0  0.362529  0  0.94275  0  0  0.335911  0  1.018528  0  0  0.347929  0  1.005142  0  0  0.30227  0.327353  0  1.027965  0
H  H6  1  0.75027271  0.96239813  0.94207700  1  0  0.362391  0  0.942829  0  0  0.335726  0  1.018707  0  0  0.347759  0  1.005287  0  0  0.302184  0.327169  0  1.028139  0
H  H7  1  0.74972672  0.03760255  0.44207565  1  0  0.362524  0  0.942724  0  0  0.335896  0  1.018512  0  0  0.347919  0  1.005116  0  0  0.302273  0.327339  0  1.027949  0
H  H8  1  0.43567955  0.33017273  0.85054185  1  0  0.388115  0  0.890618  0  0  0.365013  0  0.959299  0  0  0.375794  0  0.946758  0  0  0.31731  0.357358  0  0.968148  0
H  H9  1  0.06432070  0.66982304  0.35054707  1  0  0.388168  0  0.890615  0  0  0.365078  0  0.959251  0  0  0.375858  0  0.946717  0  0  0.317348  0.357426  0  0.968094  0
H  H10  1  0.56432091  0.66982663  0.14945735  1  0  0.388153  0  0.890547  0  0  0.365061  0  0.959205  0  0  0.375841  0  0.946668  0  0  0.317343  0.357407  0  0.968051  0
H  H11  1  0.93567970  0.33017389  0.64945213  1  0  0.388187  0  0.890567  0  0  0.365087  0  0.95924  0  0  0.375869  0  0.946698  0  0  0.317351  0.357433  0  0.968089  0
H  H12  1  0.02738099  0.10587527  0.91105072  1  0  0.081229  0  0.927212  0  0  0.088664  0  0.992112  0  0  0.091295  0  0.989962  0  0  0.127767  0.086615  0  0.99396  0
H  H13  1  0.47261636  0.89412438  0.41105476  1  0  0.081235  0  0.927176  0  0  0.088658  0  0.992068  0  0  0.091286  0  0.989924  0  0  0.1278  0.086617  0  0.993911  0
H  H14  1  0.97262086  0.89412528  0.08894557  1  0  0.081244  0  0.927161  0  0  0.088667  0  0.992107  0  0  0.091297  0  0.989963  0  0  0.127759  0.086633  0  0.993941  0
H  H15  1  0.52738136  0.10587499  0.58894250  1  0  0.08124  0  0.927169  0  0  0.088634  0  0.992136  0  0  0.091263  0  0.989993  0  0  0.12778  0.0866  0  0.993971  0
H  H16  1  0.07702733  0.38961145  0.86721618  1  0  0.084168  0  0.917106  0  0  0.090398  0  0.980275  0  0  0.093187  0  0.977683  0  0  0.128648  0.088177  0  0.982642  0
H  H17  1  0.42297427  0.61038647  0.36722516  1  0  0.084208  0  0.917121  0  0  0.090449  0  0.980286  0  0  0.093235  0  0.977696  0  0  0.128667  0.088222  0  0.982654  0
H  H18  1  0.92297457  0.61039153  0.13278400  1  0  0.084181  0  0.917054  0  0  0.09038  0  0.980259  0  0  0.093171  0  0.977667  0  0  0.128614  0.088159  0  0.982629  0
H  H19  1  0.57702609  0.38960805  0.63277793  1  0  0.084233  0  0.917134  0  0  0.090416  0  0.980274  0  0  0.093206  0  0.97768  0  0  0.128628  0.088188  0  0.98264  0
C  C20  1  0.19644116  0.11572539  0.74519699  1  0  0.663826  0  3.828977  0  0  0.610305  0  4.137612  0  0  0.643772  0  4.129095  0  0  0.233133  0.587373  0  4.143297  0
C  C21  1  0.30355841  0.88428296  0.24520343  1  0  0.664131  0  3.828728  0  0  0.610681  0  4.137222  0  0  0.644156  0  4.128695  0  0  0.233238  0.587765  0  4.142901  0
C  C22  1  0.80355690  0.88429092  0.25480902  1  0  0.664138  0  3.829312  0  0  0.610702  0  4.137809  0  0  0.644174  0  4.129282  0  0  0.233337  0.587787  0  4.143488  0
C  C23  1  0.69644193  0.11571035  0.75480551  1  0  0.664089  0  3.829254  0  0  0.610642  0  4.137719  0  0  0.644114  0  4.129199  0  0  0.23325  0.587733  0  4.143382  0
C  C24  1  0.16953304  0.14609575  0.89127492  1  0  0.056248  0  3.651688  0  0  0.031543  0  3.902208  0  0  0.033035  0  3.908616  0  0  0.00582  0.030364  0  3.898353  0
C  C25  1  0.33046569  0.85390059  0.39127869  1  0  0.056393  0  3.651518  0  0  0.031698  0  3.902021  0  0  0.033193  0  3.908421  0  0  0.005881  0.030508  0  3.898172  0
C  C26  1  0.83046747  0.85390603  0.10872332  1  0  0.056103  0  3.651508  0  0  0.031289  0  3.902173  0  0  0.032782  0  3.90858  0  0  0.005717  0.030097  0  3.898321  0
C  C27  1  0.66953471  0.14609635  0.60871955  1  0  0.056305  0  3.65165  0  0  0.031529  0  3.902121  0  0  0.033024  0  3.908526  0  0  0.005805  0.030335  0  3.898264  0
C  C28  1  0.17863875  0.32600250  0.92663420  1  0  0.062873  0  3.639255  0  0  0.037207  0  3.889419  0  0  0.039658  0  3.895167  0  0  0.003474  0.03528  0  3.885967  0
C  C29  1  0.32135985  0.67399447  0.42663886  1  0  0.062711  0  3.639383  0  0  0.037007  0  3.889658  0  0  0.039462  0  3.895405  0  0  0.003397  0.035087  0  3.886204  0
C  C30  1  0.82136173  0.67399806  0.07336598  1  0  0.062903  0  3.639221  0  0  0.037284  0  3.889393  0  0  0.039729  0  3.89514  0  0  0.003539  0.035355  0  3.885947  0
C  C31  1  0.67863921  0.32600367  0.57336230  1  0  0.062581  0  3.639723  0  0  0.037181  0  3.889577  0  0  0.039628  0  3.895327  0  0  0.003463  0.035262  0  3.886117  0
C  C32  1  0.12358694  0.34060908  0.07045008  1  0  0.650372  0  3.897921  0  0  0.60164  0  4.198475  0  0  0.634558  0  4.190399  0  0  0.21505  0.579419  0  4.202772  0
C  C33  1  0.37640630  0.65938999  0.57045815  1  0  0.650443  0  3.898153  0  0  0.601637  0  4.198816  0  0  0.634554  0  4.190742  0  0  0.215024  0.579416  0  4.203112  0
C  C34  1  0.87641907  0.65939387  0.92955205  1  0  0.650361  0  3.897897  0  0  0.60162  0  4.198457  0  0  0.63454  0  4.190382  0  0  0.214954  0.579397  0  4.202755  0
C  C35  1  0.62358320  0.34060942  0.42954494  1  0  0.65033  0  3.898263  0  0  0.601449  0  4.198948  0  0  0.634368  0  4.190873  0  0  0.214867  0.579228  0  4.203247  0
O  O36  1  0.13362232  0.21783612  0.66615113  1  0  -0.652349  0  1.993341  0  0  -0.599502  0  2.23694  0  0  -0.624588  0  2.226929  0  0  -0.321079  -0.581721  0  2.243624  0
O  O37  1  0.36638138  0.78215774  0.16615265  1  0  -0.652578  0  1.992724  0  0  -0.599764  0  2.236229  0  0  -0.624851  0  2.226217  0  0  -0.321144  -0.581985  0  2.242906  0
O  O38  1  0.86638513  0.78217046  0.33385002  1  0  -0.652454  0  1.993362  0  0  -0.599598  0  2.2368  0  0  -0.624686  0  2.226788  0  0  -0.321071  -0.581823  0  2.243476  0
O  O39  1  0.63361609  0.21782953  0.83384559  1  0  -0.652481  0  1.993281  0  0  -0.599626  0  2.236698  0  0  -0.624714  0  2.226687  0  0  -0.321073  -0.581849  0  2.243365  0
O  O40  1  0.27514858  0.98440006  0.71215816  1  0  -0.675712  0  2.024077  0  0  -0.611941  0  2.259445  0  0  -0.639827  0  2.252391  0  0  -0.328006  -0.592156  0  2.263771  0
O  O41  1  0.22486329  0.01560029  0.21216195  1  0  -0.67592  0  2.024581  0  0  -0.612123  0  2.259893  0  0  -0.640027  0  2.252833  0  0  -0.328095  -0.592318  0  2.264151  0
O  O42  1  0.72486969  0.01559921  0.28783910  1  0  -0.675893  0  2.02496  0  0  -0.612103  0  2.260259  0  0  -0.640005  0  2.253204  0  0  -0.328086  -0.592283  0  2.264484  0
O  O43  1  0.77512618  0.98439791  0.78783726  1  0  -0.675898  0  2.024865  0  0  -0.612072  0  2.260156  0  0  -0.639979  0  2.253098  0  0  -0.328062  -0.592254  0  2.264374  0
O  O44  1  0.29618519  0.05392019  0.96548404  1  0  -0.629575  0  2.179988  0  0  -0.574776  0  2.419177  0  0  -0.592898  0  2.408427  0  0  -0.427606  -0.561822  0  2.4269  0
O  O45  1  0.20381048  0.94607497  0.46548616  1  0  -0.629723  0  2.179948  0  0  -0.574912  0  2.4191  0  0  -0.593035  0  2.408355  0  0  -0.427696  -0.561952  0  2.426818  0
O  O46  1  0.70381529  0.94608037  0.03451614  1  0  -0.629531  0  2.180061  0  0  -0.574681  0  2.419269  0  0  -0.592805  0  2.408516  0  0  -0.42759  -0.561732  0  2.426993  0
O  O47  1  0.79618724  0.05392440  0.53451402  1  0  -0.629681  0  2.180058  0  0  -0.574884  0  2.41927  0  0  -0.593003  0  2.408521  0  0  -0.427718  -0.561932  0  2.426998  0
O  O48  1  0.35656654  0.39668794  0.90776872  1  0  -0.618825  0  2.158047  0  0  -0.560584  0  2.390322  0  0  -0.578799  0  2.378912  0  0  -0.43223  -0.547511  0  2.398085  0
O  O49  1  0.14343483  0.60330691  0.40777348  1  0  -0.618854  0  2.158089  0  0  -0.560574  0  2.390384  0  0  -0.578792  0  2.378974  0  0  -0.432244  -0.547503  0  2.398145  0
O  O50  1  0.64343257  0.60331263  0.09223341  1  0  -0.61888  0  2.157997  0  0  -0.560653  0  2.390275  0  0  -0.578861  0  2.378862  0  0  -0.432303  -0.54758  0  2.39804  0
O  O51  1  0.85656557  0.39669002  0.59222669  1  0  -0.618825  0  2.158136  0  0  -0.560687  0  2.390432  0  0  -0.5789  0  2.379018  0  0  -0.432259  -0.547614  0  2.398193  0
O  O52  1  0.95981469  0.30167068  0.09952359  1  0  -0.714572  0  1.96344  0  0  -0.658838  0  2.219214  0  0  -0.686088  0  2.209882  0  0  -0.389425  -0.639291  0  2.224815  0
O  O53  1  0.54017381  0.69833070  0.59953099  1  0  -0.714598  0  1.963434  0  0  -0.658897  0  2.219347  0  0  -0.686146  0  2.210015  0  0  -0.389445  -0.639347  0  2.224947  0
O  O54  1  0.04018579  0.69832988  0.90047756  1  0  -0.714481  0  1.963625  0  0  -0.658754  0  2.219392  0  0  -0.686002  0  2.210058  0  0  -0.389344  -0.639207  0  2.224994  0
O  O55  1  0.45982259  0.30167109  0.40047406  1  0  -0.714459  0  1.963581  0  0  -0.658726  0  2.21946  0  0  -0.685971  0  2.210127  0  0  -0.389327  -0.639179  0  2.225062  0
O  O56  1  0.24527936  0.38177573  0.15246793  1  0  -0.703223  0  1.999514  0  0  -0.641408  0  2.243339  0  0  -0.667124  0  2.233793  0  0  -0.3883  -0.622863  0  2.249107  0
O  O57  1  0.25471492  0.61822324  0.65247181  1  0  -0.703203  0  1.99976  0  0  -0.64135  0  2.243603  0  0  -0.667067  0  2.234062  0  0  -0.388241  -0.622801  0  2.249367  0
O  O58  1  0.75472384  0.61822361  0.84753030  1  0  -0.703319  0  1.999258  0  0  -0.641475  0  2.243064  0  0  -0.667192  0  2.233519  0  0  -0.388315  -0.622929  0  2.248831  0
O  O59  1  0.74528151  0.38177976  0.34752642  1  0  -0.703206  0  1.99956  0  0  -0.641332  0  2.243422  0  0  -0.667049  0  2.233882  0  0  -0.388206  -0.622784  0  2.249189  0
