# generated using pymatgen
data_DyCoH16C16(N5O3)2
_symmetry_space_group_name_H-M   'P 1'
_cell_length_a   10.12191950
_cell_length_b   10.58343821
_cell_length_c   12.32297835
_cell_angle_alpha   73.70836571
_cell_angle_beta   75.16761203
_cell_angle_gamma   70.29211726
_symmetry_Int_Tables_number   1
_chemical_formula_structural   DyCoH16C16(N5O3)2
_chemical_formula_sum   'Dy2 Co2 H32 C32 N20 O12'
_cell_volume   1173.68757007
_cell_formula_units_Z   2
loop_
 _symmetry_equiv_pos_site_id
 _symmetry_equiv_pos_as_xyz
  1  'x, y, z'
loop_
 _atom_site_type_symbol
 _atom_site_label
 _atom_site_symmetry_multiplicity
 _atom_site_fract_x
 _atom_site_fract_y
 _atom_site_fract_z
 _atom_site_occupancy
 _atom_site_hle17_bader_spin_density
 _atom_site_hle17_ddec_charge
 _atom_site_hle17_ddec_spin_density
 _atom_site_hle17_ddec_sum_bond_order
 _atom_site_hle17_magmom
 _atom_site_hse06_10hf_bader_spin_density
 _atom_site_hse06_10hf_ddec_charge
 _atom_site_hse06_10hf_ddec_spin_density
 _atom_site_hse06_10hf_ddec_sum_bond_order
 _atom_site_hse06_10hf_magmom
 _atom_site_hse06_bader_spin_density
 _atom_site_hse06_ddec_charge
 _atom_site_hse06_ddec_spin_density
 _atom_site_hse06_ddec_sum_bond_order
 _atom_site_hse06_magmom
 _atom_site_pbe_bader_spin_density
 _atom_site_pbe_cm5_charge
 _atom_site_pbe_ddec_charge
 _atom_site_pbe_ddec_spin_density
 _atom_site_pbe_ddec_sum_bond_order
 _atom_site_pbe_magmom
Dy  Dy0  1  0.40969873  0.30806499  0.28762076  1  0  2.268631  0  1.650722  0  0  2.121132  0  2.131769  0  0  2.240911  0  1.946213  0  0  1.547583  2.089199  0  2.161071  0
Dy  Dy1  1  0.59032668  0.69190241  0.71237446  1  0  2.268377  0  1.650795  0  0  2.12115  0  2.131294  0  0  2.240649  0  1.946258  0  0  1.547588  2.089207  0  2.16061  0
Co  Co2  1  0.33466530  0.30185101  0.73932496  1  0  0.024839  0  4.55468  0  0  0.150707  0  4.873274  0  0  0.142828  0  4.869799  0  0  0.507056  0.166144  0  4.867077  0
Co  Co3  1  0.66532195  0.69817061  0.26066530  1  0  0.024604  0  4.554735  0  0  0.150377  0  4.873496  0  0  0.142506  0  4.870008  0  0  0.507102  0.165792  0  4.867365  0
H  H4  1  0.29209371  0.75759739  0.53585588  1  0  0.129573  0  0.93876  0  0  0.135153  0  1.00477  0  0  0.138698  0  1.002904  0  0  0.120901  0.132729  0  1.005944  0
H  H5  1  0.70790933  0.24241301  0.46412994  1  0  0.129594  0  0.938854  0  0  0.135196  0  1.004834  0  0  0.138747  0  1.002965  0  0  0.120915  0.13277  0  1.006004  0
H  H6  1  0.32570743  0.90168924  0.03542512  1  0  0.140754  0  0.913495  0  0  0.149196  0  0.969568  0  0  0.152618  0  0.968031  0  0  0.124501  0.146583  0  0.970393  0
H  H7  1  0.67429485  0.09830599  0.96458408  1  0  0.140768  0  0.913487  0  0  0.149201  0  0.96957  0  0  0.152624  0  0.968032  0  0  0.124495  0.14659  0  0.970395  0
H  H8  1  0.13453832  0.51421507  0.08340532  1  0  0.129335  0  0.923637  0  0  0.136912  0  0.984529  0  0  0.140459  0  0.980969  0  0  0.138942  0.134106  0  0.987226  0
H  H9  1  0.86548309  0.48577504  0.91658996  1  0  0.129376  0  0.923589  0  0  0.136918  0  0.984482  0  0  0.140465  0  0.980925  0  0  0.13896  0.134115  0  0.987167  0
H  H10  1  0.47453715  0.65195572  0.07553919  1  0  0.130672  0  0.929877  0  0  0.137735  0  0.989402  0  0  0.140343  0  0.987244  0  0  0.139287  0.135908  0  0.99093  0
H  H11  1  0.52547451  0.34804260  0.92446088  1  0  0.130733  0  0.929776  0  0  0.137773  0  0.989275  0  0  0.140387  0  0.987121  0  0  0.139311  0.135942  0  0.990807  0
H  H12  1  0.01037310  0.67246233  0.30605555  1  0  0.117952  0  0.961094  0  0  0.123949  0  1.026481  0  0  0.126335  0  1.025449  0  0  0.130159  0.122277  0  1.027094  0
H  H13  1  0.98963868  0.32751625  0.69393802  1  0  0.11792  0  0.961118  0  0  0.123898  0  1.026503  0  0  0.126284  0  1.02547  0  0  0.13018  0.122237  0  1.02712  0
H  H14  1  0.37145110  0.54552349  0.45208263  1  0  0.119868  0  0.956861  0  0  0.129878  0  1.013442  0  0  0.131467  0  1.013461  0  0  0.136929  0.128731  0  1.013501  0
H  H15  1  0.62856274  0.45447789  0.54791219  1  0  0.119852  0  0.956728  0  0  0.1298  0  1.013403  0  0  0.131389  0  1.013423  0  0  0.136926  0.128654  0  1.01346  0
H  H16  1  0.97288738  0.75829906  0.03640632  1  0  0.133928  0  0.961957  0  0  0.135621  0  1.032103  0  0  0.138614  0  1.03153  0  0  0.116887  0.133585  0  1.033225  0
H  H17  1  0.02712734  0.24168591  0.96359724  1  0  0.133865  0  0.961977  0  0  0.13552  0  1.032186  0  0  0.138513  0  1.031612  0  0  0.116844  0.133486  0  1.033307  0
H  H18  1  0.91438500  0.89021170  0.38305878  1  0  0.131926  0  0.962512  0  0  0.131028  0  1.035421  0  0  0.135448  0  1.031723  0  0  0.116809  0.127978  0  1.03792  0
H  H19  1  0.08560848  0.10976665  0.61693688  1  0  0.131924  0  0.962618  0  0  0.131002  0  1.035519  0  0  0.135421  0  1.031823  0  0  0.116827  0.127955  0  1.038013  0
H  H20  1  0.42410350  0.08495449  0.17369892  1  0  0.417213  0  0.889882  0  0  0.389489  0  0.948693  0  0  0.398705  0  0.935641  0  0  0.296096  0.383104  0  0.95788  0
H  H21  1  0.57592464  0.91505805  0.82626837  1  0  0.417127  0  0.890035  0  0  0.389381  0  0.948894  0  0  0.398598  0  0.935842  0  0  0.296036  0.382998  0  0.958077  0
H  H22  1  0.36313692  0.22868221  0.09439587  1  0  0.424086  0  0.888472  0  0  0.389623  0  0.959288  0  0  0.400805  0  0.94327  0  0  0.292235  0.381651  0  0.970893  0
H  H23  1  0.63686610  0.77133135  0.90559323  1  0  0.424103  0  0.888423  0  0  0.389699  0  0.959138  0  0  0.400878  0  0.943117  0  0  0.292274  0.381732  0  0.970739  0
H  H24  1  0.72367964  0.25207285  0.24893495  1  0  0.452221  0  0.801165  0  0  0.435496  0  0.846523  0  0  0.443566  0  0.83522  0  0  0.334946  0.430209  0  0.854095  0
H  H25  1  0.27635735  0.74788263  0.75101383  1  0  0.452315  0  0.800918  0  0  0.435563  0  0.846424  0  0  0.443632  0  0.835123  0  0  0.334942  0.430277  0  0.853997  0
H  H26  1  0.71164140  0.10408637  0.24537276  1  0  0.443365  0  0.858611  0  0  0.405533  0  0.931941  0  0  0.417482  0  0.914832  0  0  0.29505  0.397271  0  0.94376  0
H  H27  1  0.28834702  0.89585331  0.75466998  1  0  0.443449  0  0.858483  0  0  0.405614  0  0.931815  0  0  0.417562  0  0.914705  0  0  0.295164  0.397352  0  0.943635  0
H  H28  1  0.53395783  0.01167204  0.40832660  1  0  0.442732  0  0.811633  0  0  0.419863  0  0.874437  0  0  0.428242  0  0.865915  0  0  0.327018  0.41419  0  0.880638  0
H  H29  1  0.46564677  0.98837058  0.59230797  1  0  0.442148  0  0.812037  0  0  0.419266  0  0.874991  0  0  0.427614  0  0.866527  0  0  0.327117  0.413619  0  0.881144  0
H  H30  1  0.40982971  0.00681671  0.35786342  1  0  0.428784  0  0.859254  0  0  0.401827  0  0.921465  0  0  0.410586  0  0.909208  0  0  0.308969  0.395798  0  0.930016  0
H  H31  1  0.59034811  0.99314955  0.64205211  1  0  0.428584  0  0.859308  0  0  0.401665  0  0.921663  0  0  0.410409  0  0.909417  0  0  0.308881  0.39564  0  0.930217  0
H  H32  1  0.17748983  0.20365366  0.27821437  1  0  0.440399  0  0.808688  0  0  0.424656  0  0.85874  0  0  0.432004  0  0.850708  0  0  0.331001  0.419306  0  0.864893  0
H  H33  1  0.82248689  0.79632879  0.72179417  1  0  0.44048  0  0.808677  0  0  0.424701  0  0.858834  0  0  0.432052  0  0.850705  0  0  0.330972  0.419343  0  0.864998  0
H  H34  1  0.09199680  0.34727613  0.31303659  1  0  0.441433  0  0.861965  0  0  0.400694  0  0.941188  0  0  0.413071  0  0.923244  0  0  0.291062  0.39198  0  0.953928  0
H  H35  1  0.90798337  0.65276197  0.68688690  1  0  0.441256  0  0.862259  0  0  0.400537  0  0.941445  0  0  0.412912  0  0.923507  0  0  0.291046  0.391832  0  0.954172  0
C  C36  1  0.38419833  0.30073096  0.58338704  1  0  0.161367  0  3.517353  0  0  0.118318  0  3.826875  0  0  0.130952  0  3.839532  0  0  0.057662  0.108199  0  3.820302  0
C  C37  1  0.61583198  0.69930271  0.41660705  1  0  0.161375  0  3.517685  0  0  0.118327  0  3.827263  0  0  0.130966  0  3.839904  0  0  0.057679  0.1082  0  3.820698  0
C  C38  1  0.58763597  0.55790518  0.27360379  1  0  0.15748  0  3.529533  0  0  0.112645  0  3.844057  0  0  0.124752  0  3.856048  0  0  0.054454  0.102917  0  3.83797  0
C  C39  1  0.41234233  0.44210516  0.72640078  1  0  0.157554  0  3.529485  0  0  0.112709  0  3.843983  0  0  0.12482  0  3.855962  0  0  0.054509  0.102989  0  3.837884  0
C  C40  1  0.28343100  0.29302613  0.89722262  1  0  0.10178  0  3.523573  0  0  0.056081  0  3.835271  0  0  0.063329  0  3.848093  0  0  0.03434  0.048809  0  3.825464  0
C  C41  1  0.71653879  0.70698284  0.10276776  1  0  0.10193  0  3.524024  0  0  0.056278  0  3.835728  0  0  0.063531  0  3.848544  0  0  0.034431  0.048995  0  3.825934  0
C  C42  1  0.36321085  0.68398340  0.06753129  1  0  0.040673  0  3.550898  0  0  -0.002974  0  3.815626  0  0  0.006143  0  3.825259  0  0  0.056144  -0.008057  0  3.807416  0
C  C43  1  0.63680294  0.31601173  0.93246103  1  0  0.040693  0  3.550564  0  0  -0.002823  0  3.815143  0  0  0.006256  0  3.824825  0  0  0.056223  -0.00789  0  3.806928  0
C  C44  1  0.50842527  0.16825873  0.75522055  1  0  0.107811  0  3.521725  0  0  0.064483  0  3.826661  0  0  0.072876  0  3.838571  0  0  0.042882  0.056734  0  3.817878  0
C  C45  1  0.49156360  0.83175773  0.24476904  1  0  0.10772  0  3.522302  0  0  0.064412  0  3.827254  0  0  0.072808  0  3.839159  0  0  0.042888  0.056663  0  3.818474  0
C  C46  1  0.27289608  0.62587518  0.44084031  1  0  0.02473  0  3.572041  0  0  -0.01896  0  3.83158  0  0  -0.013271  0  3.846496  0  0  0.050425  -0.022132  0  3.820954  0
C  C47  1  0.72711326  0.37412413  0.55915836  1  0  0.024764  0  3.571817  0  0  -0.018845  0  3.831353  0  0  -0.013153  0  3.846268  0  0  0.050485  -0.022022  0  3.820731  0
C  C48  1  0.26115246  0.15616772  0.75617622  1  0  0.108144  0  3.51058  0  0  0.063273  0  3.817072  0  0  0.072042  0  3.830071  0  0  0.042755  0.055575  0  3.806978  0
C  C49  1  0.73886209  0.84385282  0.24378532  1  0  0.108174  0  3.510993  0  0  0.063324  0  3.817509  0  0  0.072079  0  3.830525  0  0  0.042785  0.055625  0  3.80741  0
C  C50  1  0.16360111  0.43906350  0.71750901  1  0  0.088552  0  3.534643  0  0  0.042359  0  3.84885  0  0  0.049279  0  3.861632  0  0  0.032138  0.03538  0  3.839613  0
C  C51  1  0.83638144  0.56095700  0.28247923  1  0  0.088778  0  3.534911  0  0  0.042616  0  3.849132  0  0  0.04954  0  3.861909  0  0  0.032206  0.035687  0  3.839809  0
C  C52  1  0.22651383  0.74210715  0.48592639  1  0  -0.123258  0  3.688752  0  0  -0.147332  0  3.9502  0  0  -0.152573  0  3.969281  0  0  -0.059549  -0.144335  0  3.93678  0
C  C53  1  0.77349087  0.25788782  0.51406373  1  0  -0.123054  0  3.68838  0  0  -0.14711  0  3.949833  0  0  -0.152346  0  3.968914  0  0  -0.059448  -0.144117  0  3.93643  0
C  C54  1  0.13815243  0.84849040  0.03342929  1  0  0.185623  0  3.798413  0  0  0.181738  0  4.058333  0  0  0.185631  0  4.079659  0  0  0.10519  0.179978  0  4.042965  0
C  C55  1  0.86186192  0.15149959  0.96656418  1  0  0.185618  0  3.798543  0  0  0.181717  0  4.058437  0  0  0.185617  0  4.079757  0  0  0.105141  0.179956  0  4.043071  0
C  C56  1  0.09704878  0.83992948  0.46586638  1  0  0.186751  0  3.817238  0  0  0.183068  0  4.075049  0  0  0.186085  0  4.095462  0  0  0.101361  0.181383  0  4.061075  0
C  C57  1  0.90295137  0.16005716  0.53412427  1  0  0.186602  0  3.817412  0  0  0.182707  0  4.075477  0  0  0.185709  0  4.095895  0  0  0.101207  0.18102  0  4.061501  0
C  C58  1  0.16809180  0.60562557  0.07012675  1  0  0.026572  0  3.570041  0  0  -0.015468  0  3.829067  0  0  -0.008824  0  3.841129  0  0  0.052208  -0.018627  0  3.822271  0
C  C59  1  0.83192577  0.39436039  0.92987113  1  0  0.026276  0  3.57054  0  0  -0.015733  0  3.829611  0  0  -0.009092  0  3.841677  0  0  0.052219  -0.018884  0  3.822808  0
C  C60  1  0.28026973  0.81881067  0.04474719  1  0  -0.121215  0  3.671277  0  0  -0.145798  0  3.931334  0  0  -0.151145  0  3.948608  0  0  -0.055477  -0.138774  0  3.915785  0
C  C61  1  0.71974226  0.18118348  0.95524979  1  0  -0.121309  0  3.671506  0  0  -0.145933  0  3.931546  0  0  -0.151273  0  3.948823  0  0  -0.055476  -0.138919  0  3.915998  0
C  C62  1  0.08294635  0.73876366  0.04482128  1  0  -0.14986  0  3.693997  0  0  -0.166266  0  3.942008  0  0  -0.17301  0  3.963465  0  0  -0.068438  -0.165757  0  3.931007  0
C  C63  1  0.91706553  0.26122741  0.95517810  1  0  -0.149711  0  3.694112  0  0  -0.166079  0  3.942065  0  0  -0.172823  0  3.963523  0  0  -0.068435  -0.165573  0  3.931065  0
C  C64  1  0.06532014  0.70044028  0.35665241  1  0  0.027045  0  3.567566  0  0  -0.012141  0  3.818094  0  0  -0.006414  0  3.831438  0  0  0.047516  -0.015618  0  3.808484  0
C  C65  1  0.93469481  0.29954767  0.64334307  1  0  0.027358  0  3.567425  0  0  -0.011796  0  3.817909  0  0  -0.006061  0  3.831248  0  0  0.047603  -0.015289  0  3.808311  0
C  C66  1  0.01577499  0.81689729  0.40012221  1  0  -0.126327  0  3.691426  0  0  -0.143306  0  3.937871  0  0  -0.147856  0  3.956033  0  0  -0.061245  -0.140348  0  3.925682  0
C  C67  1  0.98422607  0.18308630  0.59987063  1  0  -0.126575  0  3.691553  0  0  -0.143433  0  3.937953  0  0  -0.147981  0  3.956119  0  0  -0.061351  -0.140472  0  3.925766  0
N  N68  1  0.30597738  0.57975531  0.08236850  1  0  0.298258  0  3.689878  0  0  0.349886  0  3.954733  0  0  0.35096  0  3.977123  0  0  -0.102993  0.346482  0  3.942209  0
N  N69  1  0.69404655  0.42023682  0.91762090  1  0  0.298511  0  3.689485  0  0  0.350092  0  3.954345  0  0  0.351173  0  3.976727  0  0  -0.102971  0.346681  0  3.941818  0
N  N70  1  0.19270974  0.60630255  0.37696577  1  0  0.317595  0  3.669484  0  0  0.37326  0  3.925841  0  0  0.375259  0  3.948417  0  0  -0.092376  0.371594  0  3.91162  0
N  N71  1  0.80730229  0.39368842  0.62302630  1  0  0.31733  0  3.669721  0  0  0.372918  0  3.926118  0  0  0.374909  0  3.94869  0  0  -0.092586  0.371254  0  3.911898  0
N  N72  1  0.41598994  0.29090700  0.48708583  1  0  -0.573658  0  2.951588  0  0  -0.521732  0  3.247455  0  0  -0.547174  0  3.250984  0  0  -0.459672  -0.51189  0  3.242717  0
N  N73  1  0.58404736  0.70911428  0.51290344  1  0  -0.573635  0  2.951962  0  0  -0.521753  0  3.247818  0  0  -0.547161  0  3.25137  0  0  -0.459742  -0.511909  0  3.24308  0
N  N74  1  0.54033949  0.46925283  0.27802059  1  0  -0.578783  0  2.992515  0  0  -0.530849  0  3.295082  0  0  -0.554337  0  3.299268  0  0  -0.45559  -0.521312  0  3.290788  0
N  N75  1  0.45966323  0.53074757  0.72198805  1  0  -0.578891  0  2.992455  0  0  -0.53099  0  3.29498  0  0  -0.554435  0  3.299167  0  0  -0.455646  -0.521437  0  3.29066  0
N  N76  1  0.05662922  0.95513227  0.51412396  1  0  -0.142518  0  2.976603  0  0  -0.122719  0  3.259041  0  0  -0.117827  0  3.258928  0  0  -0.14625  -0.125663  0  3.258444  0
N  N77  1  0.94336857  0.04485853  0.48587019  1  0  -0.142469  0  2.97676  0  0  -0.122605  0  3.259256  0  0  -0.117714  0  3.259146  0  0  -0.146189  -0.125544  0  3.258655  0
N  N78  1  0.05992106  0.52943844  0.70294071  1  0  -0.4362  0  2.853945  0  0  -0.38379  0  3.113251  0  0  -0.396842  0  3.12334  0  0  -0.348071  -0.373607  0  3.106251  0
N  N79  1  0.94004564  0.47058076  0.29704452  1  0  -0.43643  0  2.854242  0  0  -0.384018  0  3.113586  0  0  -0.397073  0  3.123666  0  0  -0.348221  -0.373856  0  3.106594  0
N  N80  1  0.61504614  0.07776098  0.75730211  1  0  -0.477885  0  2.800726  0  0  -0.425122  0  3.044163  0  0  -0.438633  0  3.054275  0  0  -0.36995  -0.415191  0  3.037558  0
N  N81  1  0.38494999  0.92224918  0.24267460  1  0  -0.477733  0  2.801115  0  0  -0.425028  0  3.044573  0  0  -0.438537  0  3.05469  0  0  -0.369971  -0.415102  0  3.037968  0
N  N82  1  0.22820939  0.05792730  0.76235278  1  0  -0.443154  0  2.846891  0  0  -0.386093  0  3.101958  0  0  -0.401991  0  3.112802  0  0  -0.349642  -0.374134  0  3.094011  0
N  N83  1  0.77185616  0.94205756  0.23759683  1  0  -0.442986  0  2.847221  0  0  -0.385945  0  3.102326  0  0  -0.401843  0  3.113184  0  0  -0.349686  -0.373987  0  3.09437  0
N  N84  1  0.25228411  0.28824817  0.99648132  1  0  -0.444389  0  2.810787  0  0  -0.396899  0  3.067399  0  0  -0.409415  0  3.0759  0  0  -0.359645  -0.387043  0  3.061272  0
N  N85  1  0.74768351  0.71175774  0.00351350  1  0  -0.444591  0  2.811318  0  0  -0.397149  0  3.067912  0  0  -0.409666  0  3.076411  0  0  -0.359834  -0.387294  0  3.061798  0
N  N86  1  0.05896732  0.98790812  0.01538167  1  0  -0.121477  0  2.962248  0  0  -0.106599  0  3.25398  0  0  -0.103619  0  3.256794  0  0  -0.133979  -0.108186  0  3.251053  0
N  N87  1  0.94104162  0.01207970  0.98461018  1  0  -0.12157  0  2.962298  0  0  -0.106629  0  3.254006  0  0  -0.10365  0  3.25682  0  0  -0.134021  -0.108215  0  3.251078  0
O  O88  1  0.43060418  0.18038419  0.15032051  1  0  -0.923365  0  1.919982  0  0  -0.871347  0  2.113274  0  0  -0.900828  0  2.079273  0  0  -0.651283  -0.857791  0  2.133955  0
O  O89  1  0.56943858  0.81962116  0.84963670  1  0  -0.923367  0  1.920135  0  0  -0.871434  0  2.113412  0  0  -0.90088  0  2.079451  0  0  -0.651333  -0.857875  0  2.134057  0
O  O90  1  0.38383813  0.45126128  0.10907414  1  0  -0.633306  0  1.870501  0  0  -0.599176  0  2.137888  0  0  -0.635488  0  2.13501  0  0  -0.314202  -0.580808  0  2.137745  0
O  O91  1  0.61618698  0.54873389  0.89091022  1  0  -0.633346  0  1.870292  0  0  -0.599252  0  2.137668  0  0  -0.635519  0  2.134797  0  0  -0.314363  -0.580905  0  2.137572  0
O  O92  1  0.23264996  0.49712125  0.33334442  1  0  -0.63396  0  1.926636  0  0  -0.595263  0  2.181403  0  0  -0.634201  0  2.182092  0  0  -0.312153  -0.575086  0  2.177955  0
O  O93  1  0.76736875  0.50286068  0.66665991  1  0  -0.633918  0  1.926699  0  0  -0.595169  0  2.181414  0  0  -0.634068  0  2.182118  0  0  -0.31213  -0.574995  0  2.177969  0
O  O94  1  0.65714307  0.20010870  0.25868135  1  0  -0.936799  0  1.866962  0  0  -0.88631  0  2.069328  0  0  -0.915692  0  2.030589  0  0  -0.642204  -0.873276  0  2.091109  0
O  O95  1  0.34287178  0.79984469  0.74135434  1  0  -0.936964  0  1.86658  0  0  -0.886459  0  2.068965  0  0  -0.915801  0  2.030262  0  0  -0.642296  -0.873426  0  2.09074  0
O  O96  1  0.18361164  0.26900899  0.31732071  1  0  -0.912546  0  1.848564  0  0  -0.864515  0  2.045895  0  0  -0.892744  0  2.012511  0  0  -0.641903  -0.852037  0  2.065336  0
O  O97  1  0.81638268  0.73104271  0.68259983  1  0  -0.912481  0  1.848731  0  0  -0.864492  0  2.04598  0  0  -0.892691  0  2.012548  0  0  -0.641836  -0.852014  0  2.065408  0
O  O98  1  0.43841667  0.06469387  0.39273355  1  0  -0.87133  0  1.853655  0  0  -0.820852  0  2.040701  0  0  -0.847516  0  2.011428  0  0  -0.607893  -0.808035  0  2.057433  0
O  O99  1  0.56145442  0.93542175  0.60721775  1  0  -0.870193  0  1.853547  0  0  -0.819774  0  2.040418  0  0  -0.846374  0  2.011353  0  0  -0.607415  -0.806979  0  2.057079  0
