# generated using pymatgen
data_LaH6(C2O3)3
_symmetry_space_group_name_H-M   'P 1'
_cell_length_a   6.74167771
_cell_length_b   10.39948478
_cell_length_c   13.76347366
_cell_angle_alpha   89.99988752
_cell_angle_beta   89.99995217
_cell_angle_gamma   89.99995416
_symmetry_Int_Tables_number   1
_chemical_formula_structural   LaH6(C2O3)3
_chemical_formula_sum   'La4 H24 C24 O36'
_cell_volume   964.95679018
_cell_formula_units_Z   4
loop_
 _symmetry_equiv_pos_site_id
 _symmetry_equiv_pos_as_xyz
  1  'x, y, z'
loop_
 _atom_site_type_symbol
 _atom_site_label
 _atom_site_symmetry_multiplicity
 _atom_site_fract_x
 _atom_site_fract_y
 _atom_site_fract_z
 _atom_site_occupancy
 _atom_site_hle17_bader_spin_density
 _atom_site_hle17_ddec_charge
 _atom_site_hle17_ddec_spin_density
 _atom_site_hle17_ddec_sum_bond_order
 _atom_site_hle17_magmom
 _atom_site_hse06_10hf_bader_spin_density
 _atom_site_hse06_10hf_ddec_charge
 _atom_site_hse06_10hf_ddec_spin_density
 _atom_site_hse06_10hf_ddec_sum_bond_order
 _atom_site_hse06_10hf_magmom
 _atom_site_hse06_bader_spin_density
 _atom_site_hse06_ddec_charge
 _atom_site_hse06_ddec_spin_density
 _atom_site_hse06_ddec_sum_bond_order
 _atom_site_hse06_magmom
 _atom_site_pbe_bader_spin_density
 _atom_site_pbe_cm5_charge
 _atom_site_pbe_ddec_charge
 _atom_site_pbe_ddec_spin_density
 _atom_site_pbe_ddec_sum_bond_order
 _atom_site_pbe_magmom
La  La0  1  0.13044746  0.99999924  0.20226648  1  0  2.146857  0  1.742279  0  0  2.012003  0  2.265965  0  0  2.11144  0  2.163838  0  0  1.40005  1.93705  0  2.338683  0
La  La1  1  0.36955100  0.50000069  0.70226704  1  0  2.14686  0  1.742295  0  0  2.012016  0  2.265985  0  0  2.111448  0  2.163864  0  0  1.400048  1.937059  0  2.338718  0
La  La2  1  0.63044784  0.50000018  0.29773321  1  0  2.146854  0  1.742316  0  0  2.011995  0  2.266013  0  0  2.111433  0  2.16389  0  0  1.400049  1.937036  0  2.338739  0
La  La3  1  0.86954841  0.00000066  0.79773304  1  0  2.146837  0  1.742297  0  0  2.011973  0  2.265985  0  0  2.111403  0  2.163867  0  0  1.400018  1.937016  0  2.338711  0
H  H4  1  0.22033443  0.07489373  0.98211171  1  0  0.438028  0  0.848662  0  0  0.410823  0  0.906816  0  0  0.420887  0  0.892133  0  0  0.313706  0.403492  0  0.917538  0
H  H5  1  0.22033392  0.92510604  0.98211180  1  0  0.438144  0  0.848652  0  0  0.410931  0  0.906702  0  0  0.420996  0  0.89202  0  0  0.313774  0.403596  0  0.917431  0
H  H6  1  0.27966551  0.57489317  0.48211255  1  0  0.438069  0  0.848622  0  0  0.410858  0  0.90677  0  0  0.420922  0  0.892088  0  0  0.313729  0.403525  0  0.917496  0
H  H7  1  0.72033324  0.57489397  0.51788686  1  0  0.438067  0  0.848629  0  0  0.410852  0  0.906782  0  0  0.420917  0  0.892099  0  0  0.313723  0.40352  0  0.917507  0
H  H8  1  0.77966292  0.92510618  0.01788709  1  0  0.43807  0  0.84863  0  0  0.410855  0  0.906776  0  0  0.42092  0  0.892093  0  0  0.313743  0.403522  0  0.917503  0
H  H9  1  0.77966640  0.07489386  0.01788699  1  0  0.438042  0  0.848648  0  0  0.410834  0  0.9068  0  0  0.4209  0  0.892116  0  0  0.313721  0.403502  0  0.917526  0
H  H10  1  0.72033333  0.42510674  0.51788697  1  0  0.438046  0  0.848668  0  0  0.410831  0  0.906816  0  0  0.420896  0  0.892133  0  0  0.313704  0.403499  0  0.917542  0
H  H11  1  0.27966560  0.42510690  0.48211266  1  0  0.438056  0  0.848635  0  0  0.410851  0  0.90678  0  0  0.420914  0  0.892098  0  0  0.313724  0.403518  0  0.917506  0
H  H12  1  0.97350650  0.19609746  0.35530895  1  0  0.4479  0  0.841259  0  0  0.417709  0  0.902488  0  0  0.429657  0  0.885021  0  0  0.305333  0.409053  0  0.915114  0
H  H13  1  0.97350465  0.80390257  0.35530777  1  0  0.447887  0  0.841279  0  0  0.417703  0  0.902496  0  0  0.42965  0  0.885029  0  0  0.305337  0.409046  0  0.915123  0
H  H14  1  0.52649387  0.69609766  0.85530890  1  0  0.447906  0  0.841251  0  0  0.417725  0  0.902462  0  0  0.429672  0  0.884996  0  0  0.305346  0.409067  0  0.91509  0
H  H15  1  0.47350325  0.69609763  0.14469179  1  0  0.447893  0  0.841265  0  0  0.417711  0  0.902479  0  0  0.429658  0  0.885012  0  0  0.305341  0.409053  0  0.915106  0
H  H16  1  0.02649383  0.80390149  0.64469202  1  0  0.447904  0  0.841252  0  0  0.417716  0  0.902477  0  0  0.429663  0  0.885011  0  0  0.305324  0.409058  0  0.915107  0
H  H17  1  0.02649419  0.19609734  0.64469175  1  0  0.447923  0  0.841233  0  0  0.41771  0  0.902494  0  0  0.429668  0  0.885016  0  0  0.305321  0.409051  0  0.915123  0
H  H18  1  0.47350497  0.30390128  0.14469208  1  0  0.447881  0  0.841285  0  0  0.417694  0  0.902508  0  0  0.429641  0  0.885041  0  0  0.305311  0.409036  0  0.915137  0
H  H19  1  0.52649411  0.30390323  0.85530846  1  0  0.447912  0  0.841249  0  0  0.4177  0  0.902509  0  0  0.429658  0  0.88503  0  0  0.305319  0.409041  0  0.915138  0
H  H20  1  0.20546175  0.23061764  0.35636767  1  0  0.436725  0  0.856077  0  0  0.408262  0  0.914069  0  0  0.419322  0  0.89813  0  0  0.302268  0.400225  0  0.925648  0
H  H21  1  0.20545994  0.76938087  0.35636800  1  0  0.436748  0  0.85605  0  0  0.408285  0  0.91404  0  0  0.419346  0  0.898098  0  0  0.302279  0.400248  0  0.92562  0
H  H22  1  0.29453972  0.73061963  0.85636751  1  0  0.436727  0  0.856076  0  0  0.408267  0  0.914062  0  0  0.41933  0  0.89812  0  0  0.302274  0.40023  0  0.925644  0
H  H23  1  0.70546033  0.73061755  0.14363239  1  0  0.43675  0  0.85605  0  0  0.408289  0  0.914037  0  0  0.41935  0  0.898096  0  0  0.302277  0.400252  0  0.925617  0
H  H24  1  0.79453857  0.76938034  0.64363257  1  0  0.436752  0  0.856045  0  0  0.408299  0  0.914025  0  0  0.419362  0  0.898081  0  0  0.302278  0.400263  0  0.925606  0
H  H25  1  0.79453890  0.23062000  0.64363152  1  0  0.43673  0  0.856069  0  0  0.408271  0  0.914052  0  0  0.419332  0  0.898112  0  0  0.302268  0.400235  0  0.925631  0
H  H26  1  0.70546061  0.26938028  0.14363201  1  0  0.436746  0  0.856054  0  0  0.408294  0  0.914034  0  0  0.419357  0  0.89809  0  0  0.302275  0.400257  0  0.925615  0
H  H27  1  0.29453851  0.26938139  0.85636640  1  0  0.436756  0  0.856036  0  0  0.408296  0  0.91402  0  0  0.419357  0  0.89808  0  0  0.302287  0.400261  0  0.925599  0
C  C28  1  0.03688075  0.38361124  0.04769043  1  0  -0.055258  0  3.686267  0  0  -0.055427  0  3.933835  0  0  -0.056969  0  3.948674  0  0  0.005639  -0.054732  0  3.924217  0
C  C29  1  0.03687468  0.61638816  0.04769098  1  0  -0.055208  0  3.686149  0  0  -0.055348  0  3.933692  0  0  -0.056892  0  3.948532  0  0  0.005675  -0.05465  0  3.924065  0
C  C30  1  0.46312405  0.88361217  0.54769093  1  0  -0.055233  0  3.686237  0  0  -0.055387  0  3.933772  0  0  -0.056928  0  3.94861  0  0  0.005673  -0.054686  0  3.92415  0
C  C31  1  0.53687729  0.88361132  0.45230947  1  0  -0.055242  0  3.686171  0  0  -0.055398  0  3.933722  0  0  -0.056939  0  3.948558  0  0  0.005666  -0.054692  0  3.924101  0
C  C32  1  0.96312402  0.61638770  0.95230909  1  0  -0.055191  0  3.686112  0  0  -0.055353  0  3.933679  0  0  -0.056896  0  3.948521  0  0  0.005672  -0.054655  0  3.924052  0
C  C33  1  0.96312564  0.38361079  0.95230927  1  0  -0.0552  0  3.686262  0  0  -0.055336  0  3.933792  0  0  -0.056881  0  3.948635  0  0  0.005689  -0.054644  0  3.924172  0
C  C34  1  0.53687775  0.11638869  0.45230932  1  0  -0.055203  0  3.686158  0  0  -0.055345  0  3.93371  0  0  -0.056888  0  3.948553  0  0  0.005676  -0.054645  0  3.924093  0
C  C35  1  0.46312451  0.11638859  0.54769005  1  0  -0.055232  0  3.686143  0  0  -0.055385  0  3.933701  0  0  -0.05693  0  3.948544  0  0  0.00566  -0.054683  0  3.924079  0
C  C36  1  0.07307490  0.49999867  0.09583080  1  0  -0.059255  0  3.664161  0  0  -0.058859  0  3.906432  0  0  -0.060353  0  3.921486  0  0  0.013819  -0.058391  0  3.897263  0
C  C37  1  0.42692524  0.99999770  0.59583131  1  0  -0.059238  0  3.664036  0  0  -0.05884  0  3.906346  0  0  -0.060331  0  3.9214  0  0  0.013816  -0.058384  0  3.897197  0
C  C38  1  0.57307657  0.00000029  0.40417039  1  0  -0.059179  0  3.66397  0  0  -0.058822  0  3.906273  0  0  -0.060312  0  3.921322  0  0  0.013826  -0.058371  0  3.897129  0
C  C39  1  0.92692691  0.49999836  0.90417018  1  0  -0.059215  0  3.664239  0  0  -0.058882  0  3.906469  0  0  -0.060366  0  3.921535  0  0  0.01384  -0.058412  0  3.897299  0
C  C40  1  0.06963376  0.25809629  0.09892976  1  0  0.65557  0  3.899128  0  0  0.601551  0  4.202918  0  0  0.634733  0  4.197818  0  0  0.217966  0.579009  0  4.205239  0
C  C41  1  0.06962753  0.74190295  0.09893085  1  0  0.655532  0  3.899155  0  0  0.601499  0  4.202942  0  0  0.634687  0  4.197835  0  0  0.217937  0.578958  0  4.205258  0
C  C42  1  0.43037111  0.75809628  0.59893100  1  0  0.655592  0  3.899091  0  0  0.601603  0  4.202821  0  0  0.63478  0  4.197722  0  0  0.217985  0.579061  0  4.205141  0
C  C43  1  0.56963039  0.75809746  0.40107031  1  0  0.655567  0  3.899142  0  0  0.601584  0  4.202869  0  0  0.634764  0  4.197766  0  0  0.217981  0.579041  0  4.205189  0
C  C44  1  0.93036805  0.74190361  0.90106903  1  0  0.655593  0  3.899074  0  0  0.601588  0  4.202839  0  0  0.63477  0  4.19774  0  0  0.217978  0.579045  0  4.205158  0
C  C45  1  0.93036982  0.25809599  0.90106939  1  0  0.655611  0  3.899087  0  0  0.601605  0  4.202843  0  0  0.634784  0  4.197744  0  0  0.217965  0.579066  0  4.205162  0
C  C46  1  0.56963367  0.24190458  0.40106997  1  0  0.655552  0  3.899157  0  0  0.60153  0  4.20294  0  0  0.634707  0  4.197845  0  0  0.21796  0.57899  0  4.205257  0
C  C47  1  0.43036845  0.24190340  0.59893066  1  0  0.655596  0  3.89907  0  0  0.601581  0  4.202841  0  0  0.634762  0  4.197745  0  0  0.21795  0.579042  0  4.205158  0
C  C48  1  0.12451897  0.49999851  0.20291785  1  0  0.733045  0  3.86359  0  0  0.685656  0  4.16108  0  0  0.722536  0  4.150097  0  0  0.251474  0.660098  0  4.168209  0
C  C49  1  0.37547800  0.99999949  0.70291839  1  0  0.733066  0  3.863502  0  0  0.685594  0  4.161122  0  0  0.722471  0  4.150141  0  0  0.251469  0.660039  0  4.168252  0
C  C50  1  0.62451875  0.99999899  0.29708184  1  0  0.73294  0  3.863694  0  0  0.685584  0  4.161136  0  0  0.722463  0  4.150154  0  0  0.251462  0.66003  0  4.168267  0
C  C51  1  0.87547987  0.50000043  0.79708167  1  0  0.732817  0  3.863948  0  0  0.685636  0  4.161118  0  0  0.722486  0  4.150176  0  0  0.251479  0.660078  0  4.168244  0
O  O52  1  0.92178222  0.18063453  0.10788888  1  0  -0.697775  0  2.016793  0  0  -0.636994  0  2.243914  0  0  -0.666997  0  2.234464  0  0  -0.333436  -0.615423  0  2.249757  0
O  O53  1  0.92178035  0.81936521  0.10789058  1  0  -0.697815  0  2.016851  0  0  -0.637015  0  2.243947  0  0  -0.667021  0  2.234504  0  0  -0.333426  -0.615449  0  2.249793  0
O  O54  1  0.57822010  0.68063470  0.60788953  1  0  -0.697828  0  2.016866  0  0  -0.637042  0  2.243947  0  0  -0.667045  0  2.234509  0  0  -0.333436  -0.615473  0  2.249791  0
O  O55  1  0.42178149  0.68063598  0.39211045  1  0  -0.697784  0  2.016867  0  0  -0.636993  0  2.243937  0  0  -0.666991  0  2.234493  0  0  -0.333392  -0.615422  0  2.249779  0
O  O56  1  0.07821811  0.81936634  0.89211137  1  0  -0.697784  0  2.016801  0  0  -0.637026  0  2.243928  0  0  -0.667018  0  2.234461  0  0  -0.333443  -0.615455  0  2.24977  0
O  O57  1  0.07821849  0.18063470  0.89210822  1  0  -0.697808  0  2.016819  0  0  -0.637032  0  2.243929  0  0  -0.667032  0  2.234484  0  0  -0.333399  -0.615461  0  2.24977  0
O  O58  1  0.42178616  0.31936713  0.39211072  1  0  -0.697767  0  2.016867  0  0  -0.636972  0  2.243965  0  0  -0.666972  0  2.234524  0  0  -0.333421  -0.615401  0  2.249806  0
O  O59  1  0.57821735  0.31936681  0.60789052  1  0  -0.697811  0  2.016787  0  0  -0.637042  0  2.243936  0  0  -0.667022  0  2.234445  0  0  -0.333423  -0.615473  0  2.249781  0
O  O60  1  0.23911826  0.23048234  0.13253246  1  0  -0.632388  0  1.99585  0  0  -0.575086  0  2.222181  0  0  -0.604593  0  2.214258  0  0  -0.31379  -0.553969  0  2.226961  0
O  O61  1  0.23911497  0.76951577  0.13253351  1  0  -0.632336  0  1.995835  0  0  -0.575025  0  2.222139  0  0  -0.604549  0  2.214241  0  0  -0.31377  -0.553908  0  2.226911  0
O  O62  1  0.26088361  0.73048434  0.63253304  1  0  -0.632389  0  1.995818  0  0  -0.575091  0  2.222107  0  0  -0.604608  0  2.214209  0  0  -0.313818  -0.553973  0  2.226883  0
O  O63  1  0.73911644  0.73048552  0.36746687  1  0  -0.632401  0  1.995808  0  0  -0.575114  0  2.222103  0  0  -0.604634  0  2.214205  0  0  -0.313846  -0.553996  0  2.226877  0
O  O64  1  0.76088206  0.76951757  0.86746779  1  0  -0.632402  0  1.995845  0  0  -0.575107  0  2.222163  0  0  -0.604617  0  2.214246  0  0  -0.313795  -0.553992  0  2.226941  0
O  O65  1  0.76088387  0.23048510  0.86746674  1  0  -0.632407  0  1.995801  0  0  -0.575096  0  2.222104  0  0  -0.604614  0  2.214207  0  0  -0.313831  -0.553978  0  2.226878  0
O  O66  1  0.73911968  0.26951653  0.36746794  1  0  -0.632404  0  1.995843  0  0  -0.575088  0  2.222155  0  0  -0.604602  0  2.214247  0  0  -0.313797  -0.553971  0  2.22693  0
O  O67  1  0.26088240  0.26951631  0.63253266  1  0  -0.632411  0  1.995816  0  0  -0.575098  0  2.222143  0  0  -0.604609  0  2.214225  0  0  -0.313788  -0.553981  0  2.226919  0
O  O68  1  0.97732147  0.49999917  0.26055866  1  0  -0.680019  0  1.956725  0  0  -0.632333  0  2.206345  0  0  -0.667034  0  2.193987  0  0  -0.390556  -0.607032  0  2.21422  0
O  O69  1  0.52267425  0.99999938  0.76055933  1  0  -0.680052  0  1.956718  0  0  -0.63232  0  2.206356  0  0  -0.667021  0  2.193998  0  0  -0.390546  -0.607019  0  2.21423  0
O  O70  1  0.47732311  0.00000053  0.23944164  1  0  -0.680013  0  1.956799  0  0  -0.63233  0  2.206394  0  0  -0.667033  0  2.194036  0  0  -0.39055  -0.60703  0  2.214267  0
O  O71  1  0.02267737  0.50000073  0.73944086  1  0  -0.679941  0  1.956839  0  0  -0.632322  0  2.206358  0  0  -0.667014  0  2.194012  0  0  -0.390558  -0.607022  0  2.214233  0
O  O72  1  0.30264078  0.49999843  0.22889818  1  0  -0.658684  0  2.056172  0  0  -0.613726  0  2.317333  0  0  -0.647301  0  2.305996  0  0  -0.381238  -0.589478  0  2.324705  0
O  O73  1  0.19735763  0.99999951  0.72889733  1  0  -0.658713  0  2.05621  0  0  -0.613701  0  2.317387  0  0  -0.647273  0  2.30605  0  0  -0.381243  -0.589453  0  2.324757  0
O  O74  1  0.80263973  0.00000136  0.27110219  1  0  -0.658638  0  2.056235  0  0  -0.613684  0  2.317365  0  0  -0.647258  0  2.306029  0  0  -0.381238  -0.589436  0  2.324736  0
O  O75  1  0.69735955  0.50000147  0.77110134  1  0  -0.658601  0  2.056336  0  0  -0.613738  0  2.317419  0  0  -0.647303  0  2.306093  0  0  -0.381258  -0.589491  0  2.32479  0
O  O76  1  0.24681925  0.99999848  0.02359354  1  0  -0.87261  0  1.859751  0  0  -0.831097  0  2.041556  0  0  -0.854861  0  2.009656  0  0  -0.617193  -0.813475  0  2.064037  0
O  O77  1  0.25318101  0.50000095  0.52359487  1  0  -0.872556  0  1.8597  0  0  -0.831058  0  2.041587  0  0  -0.854819  0  2.00969  0  0  -0.61716  -0.813435  0  2.064068  0
O  O78  1  0.74682079  0.50000088  0.47640465  1  0  -0.872544  0  1.859712  0  0  -0.831036  0  2.041589  0  0  -0.854807  0  2.009703  0  0  -0.617137  -0.813408  0  2.064055  0
O  O79  1  0.75317959  0.00000046  0.97640525  1  0  -0.872536  0  1.859721  0  0  -0.831031  0  2.041605  0  0  -0.854794  0  2.009707  0  0  -0.617165  -0.813403  0  2.064076  0
O  O80  1  0.10715690  0.16522503  0.33644181  1  0  -0.897562  0  1.819641  0  0  -0.851778  0  2.005794  0  0  -0.878366  0  1.971743  0  0  -0.635928  -0.832156  0  2.029943  0
O  O81  1  0.10715502  0.83477455  0.33644204  1  0  -0.897545  0  1.819622  0  0  -0.851764  0  2.005761  0  0  -0.87835  0  1.971709  0  0  -0.635937  -0.832145  0  2.029913  0
O  O82  1  0.39284468  0.66522600  0.83644161  1  0  -0.897555  0  1.819631  0  0  -0.851768  0  2.005771  0  0  -0.878357  0  1.971716  0  0  -0.635945  -0.832148  0  2.029923  0
O  O83  1  0.60715396  0.66522489  0.16355766  1  0  -0.897561  0  1.819618  0  0  -0.851778  0  2.005758  0  0  -0.878363  0  1.971705  0  0  -0.635948  -0.832157  0  2.02991  0
O  O84  1  0.89284342  0.83477391  0.66355844  1  0  -0.897566  0  1.819578  0  0  -0.851797  0  2.005704  0  0  -0.878384  0  1.971652  0  0  -0.635921  -0.832176  0  2.029856  0
O  O85  1  0.89284234  0.16522536  0.66355676  1  0  -0.897557  0  1.819605  0  0  -0.851752  0  2.005778  0  0  -0.878353  0  1.971699  0  0  -0.635907  -0.832125  0  2.029935  0
O  O86  1  0.60715564  0.33477390  0.16355791  1  0  -0.897547  0  1.819614  0  0  -0.851771  0  2.005733  0  0  -0.87836  0  1.971678  0  0  -0.635913  -0.832149  0  2.029884  0
O  O87  1  0.39284340  0.33477502  0.83644186  1  0  -0.897585  0  1.819587  0  0  -0.851781  0  2.005755  0  0  -0.878381  0  1.971676  0  0  -0.635925  -0.832156  0  2.029911  0
