data_image0
_chemical_formula_structural       Ti8H34C46N4O32
_chemical_formula_sum              "Ti8 H34 C46 N4 O32"
_cell_length_a       15.95420099858623
_cell_length_b       16.04795857598427
_cell_length_c       15.585022796463363
_cell_angle_alpha    107.2133929237071
_cell_angle_beta     106.05997152020328
_cell_angle_gamma    116.0387522435376
_symmetry_space_group_name_H-M    "P1"
_symmetry_Int_Tables_number       1

loop_
  _symmetry_equiv_pos_as_xyz
    x,y,z

loop_
  _atom_site_type_symbol
  _atom_site_label
  _atom_site_symmetry_multiplicity
  _atom_site_fract_x
  _atom_site_fract_y
  _atom_site_fract_z
  _atom_site_occupancy
  _atom_site_charge
Ti  Ti1  1.0  0.3048005782628676  0.5742405322816255  0.857362437447469  1.0000  2.023292
Ti  Ti2  1.0  0.7132597608255656  0.44118186397210807  0.13907002677022182  1.0000  2.017638
Ti  Ti3  1.0  0.3828557967394666  0.24228742800398337  0.7119456830257809  1.0000  2.005816
Ti  Ti4  1.0  0.5237360466235549  0.6654960537327876  0.2809695672765243  1.0000  2.002748
Ti  Ti5  1.0  0.43634876700072556  0.7035416722084459  0.13437451478688459  1.0000  2.014150
Ti  Ti6  1.0  0.5648027179064852  0.3011910961729045  0.862718229702106  1.0000  2.014858
Ti  Ti7  1.0  0.24170556708867444  0.3847789773596669  0.710321416213568  1.0000  2.005741
Ti  Ti8  1.0  0.6719825185209277  0.5313823906052969  0.28429446701805616  1.0000  1.998431
H  H1  1.0  0.609204609274941  0.4523303396076857  0.6613366544722697  1.0000  0.108724
H  H2  1.0  0.11131727161774777  0.9528327995080129  0.49594884303826864  1.0000  0.113440
H  H3  1.0  0.7810366166779271  0.9372886220256634  0.35311191302686845  1.0000  0.109455
H  H4  1.0  0.4540781285086286  0.8407952622460649  0.8417609383313559  1.0000  0.116971
H  H5  1.0  0.6563098222196447  0.1815826011501443  0.16152676253732806  1.0000  0.126942
H  H6  1.0  0.018336198083350654  0.4923536296621692  0.8320435966924005  1.0000  0.125080
H  H7  1.0  0.9959050114658545  0.6048196824286758  0.15325670551258572  1.0000  0.117346
H  H8  1.0  0.5166786436300608  0.010275060426677226  0.8348277342246097  1.0000  0.108180
H  H9  1.0  0.173074872286331  0.6768638634216027  0.15862429766929  1.0000  0.118660
H  H10  1.0  0.6453497581662471  0.48882131183466876  0.5250992801519255  1.0000  0.106997
H  H11  1.0  0.4184158245899521  0.5765131332334275  0.6393825177537679  1.0000  0.113131
H  H12  1.0  0.9531269479570251  0.1113651948296255  0.48429439808053726  1.0000  0.114686
H  H13  1.0  0.347406189474153  0.5180399553331795  0.9909618920729664  1.0000  0.433408
H  H14  1.0  0.5227189749796978  0.35214719043936  0.007880463632267845  1.0000  0.437222
H  H15  1.0  0.3904295644901232  0.06251940602034416  0.44306817533554926  1.0000  0.116089
H  H16  1.0  0.6041969202030865  0.9286504663764937  0.5551834985961441  1.0000  0.123345
H  H17  1.0  0.0837221731384249  0.614009061474917  0.6869777509166556  1.0000  0.129574
H  H18  1.0  0.9199798880581805  0.3908006628783929  0.3131782608323739  1.0000  0.119747
H  H19  1.0  0.048319554497585716  0.3762652641164508  0.43241380982771443  1.0000  0.117287
H  H20  1.0  0.3957288971120411  0.9308615858584752  0.31331550559820726  1.0000  0.118573
H  H21  1.0  0.5668882068564952  0.9496051641508837  0.19594310934931133  1.0000  0.313224
H  H22  1.0  0.6312596047723839  0.08680321709982272  0.25233966746118913  1.0000  0.307184
H  H23  1.0  0.5999516908298769  0.599162973885092  0.18069339888910052  1.0000  0.432108
H  H24  1.0  0.4167286985805272  0.41777563721091676  0.8076014763394214  1.0000  0.430058
H  H25  1.0  0.8318284429414325  0.3737808873416143  0.7425995795113572  1.0000  0.307228
H  H26  1.0  0.751171939166461  0.3673931601193202  0.7998249752582273  1.0000  0.311582
H  H27  1.0  0.9770269823493803  0.6792434931457866  0.6561011145465546  1.0000  0.311839
H  H28  1.0  0.8831771502560021  0.6338308826260687  0.5333354124737302  1.0000  0.317180
H  H29  1.0  0.6555484518217428  0.03641886407384261  0.7256098581589262  1.0000  0.310663
H  H30  1.0  0.6213863906864707  0.12628552484327313  0.7612581753844387  1.0000  0.326261
H  H31  1.0  0.4967930246296486  0.4975507139953681  0.7174614197264296  1.0000  0.102566
H  H32  1.0  0.45436232437430873  0.6131125686891058  0.5030128407700053  1.0000  0.112654
H  H33  1.0  0.7761488813317974  0.7732019459186512  0.2943708431567958  1.0000  0.097321
H  H34  1.0  0.9390820141191415  0.7788381156175181  0.3654031529199226  1.0000  0.111093
C  C1  1.0  0.8457168436487675  0.5059875200565384  0.3562275074063925  1.0000  0.638130
C  C2  1.0  0.14878686858149962  0.48890360615957407  0.6411926557673645  1.0000  0.634717
C  C3  1.0  0.48851342338109827  0.14842417825765933  0.6440733959624416  1.0000  0.639469
C  C4  1.0  0.49925051844155405  0.8397223067725935  0.35185489833020256  1.0000  0.635509
C  C5  1.0  0.9254795897922428  0.5066056810744446  0.4315677970574759  1.0000  -0.170293
C  C6  1.0  0.0733783138201558  0.49529842383929984  0.5670231858074647  1.0000  -0.008431
C  C7  1.0  0.4974912682033378  0.07402862705122713  0.5721471790347916  1.0000  -0.170196
C  C8  1.0  0.5009067584919461  0.9227224291548324  0.42808283321629237  1.0000  -0.011130
C  C9  1.0  0.9710360120646093  0.5710516548458613  0.5391380273350609  1.0000  0.307273
C  C10  1.0  0.027292879878373127  0.43071677694069205  0.46100402270754626  1.0000  -0.147145
C  C11  1.0  0.5615785978106409  0.03807017686022007  0.6065000993345894  1.0000  0.309551
C  C12  1.0  0.44086989442124314  0.9610408143398007  0.39461930652399624  1.0000  -0.145963
C  C13  1.0  0.5591991385109676  0.9602007909180853  0.5315969854837949  1.0000  -0.225670
C  C14  1.0  0.4385467214942557  0.0338866190830345  0.4665133022193211  1.0000  -0.073862
C  C15  1.0  0.9561110060361323  0.43868980442776817  0.39550553872476063  1.0000  -0.071051
C  C16  1.0  0.04657858970448294  0.5648252084837694  0.6046686398015165  1.0000  -0.226847
C  C17  1.0  0.5523956549001767  0.5535091337752039  0.5064575198516672  1.0000  -0.070443
C  C18  1.0  0.5119036259834093  0.5126097768628846  0.6578185740392638  1.0000  -0.058719
C  C19  1.0  0.8505406198586181  0.848501744636775  0.35243341704314707  1.0000  -0.061902
C  C20  1.0  0.04224591755043626  0.042225860975187136  0.4979654164072359  1.0000  -0.064819
C  C21  1.0  0.5905181812410226  0.10556686579267702  0.9990421573434916  1.0000  -0.012685
C  C22  1.0  0.5178280969769637  0.9140346128049968  0.004581145756160049  1.0000  -0.178558
C  C23  1.0  0.9067012731723422  0.5076281202613787  0.9902922810607733  1.0000  -0.178489
C  C24  1.0  0.10431071511982119  0.587902164788704  0.9946785707202371  1.0000  -0.009617
C  C25  1.0  0.5750217942617151  0.5763855432400136  0.4271087033487559  1.0000  0.668509
C  C26  1.0  0.14430433890114422  0.14506230021257277  0.5739058063396861  1.0000  0.671365
C  C27  1.0  0.6225714439735649  0.20672987841908846  0.9975351004374208  1.0000  0.648291
C  C28  1.0  0.47089211235495876  0.8116393974083759  0.0011138959107969493  1.0000  0.658212
C  C29  1.0  0.8073902207252798  0.463768146803301  0.9942340894334659  1.0000  0.657614
C  C30  1.0  0.2079597549674838  0.6235791711738583  0.9965186404210938  1.0000  0.652799
C  C31  1.0  0.48789914140597906  0.5780353504919301  0.5381606832420293  1.0000  -0.081603
C  C32  1.0  0.5755831396437626  0.4874298132730638  0.6262393783308037  1.0000  -0.090193
C  C33  1.0  0.8535906578998812  0.9413745104821726  0.38547895446496555  1.0000  -0.091620
C  C34  1.0  0.03847365910792917  0.9484322395118112  0.4647424455706094  1.0000  -0.082256
C  C35  1.0  0.6126866119321853  0.1061221704830428  0.09206928739149713  1.0000  -0.221165
C  C36  1.0  0.4990018101060871  0.9163132355017426  0.9112610030417818  1.0000  -0.072709
C  C37  1.0  0.00215098409184401  0.5814751642843422  0.08343436968821573  1.0000  -0.070724
C  C38  1.0  0.011982263745030333  0.5170983871600615  0.901800104551718  1.0000  -0.225511
C  C39  1.0  0.9427510300690976  0.8519133190166973  0.3922924757724405  1.0000  -0.092771
C  C40  1.0  0.9490349584671783  0.0380802753551162  0.45813694461983123  1.0000  -0.090044
C  C41  1.0  0.5958479499029894  0.5077042648817676  0.5507214284709746  1.0000  -0.086573
C  C42  1.0  0.46786394096174627  0.5575267131326735  0.6136845789225154  1.0000  -0.092481
C  C43  1.0  0.9111828428682271  0.47489912659185757  0.8964042767347444  1.0000  0.313146
C  C44  1.0  0.09978727262834151  0.6214878157775101  0.08686890250313936  1.0000  -0.137965
C  C45  1.0  0.533798546643263  0.009555180672607348  0.9071356009368845  1.0000  -0.143803
C  C46  1.0  0.5773719981642521  0.011706070768550356  0.09818324278624643  1.0000  0.315057
N  N1  1.0  0.6007768543702272  0.017347512725064174  0.19148673569947974  1.0000  -0.591013
N  N2  1.0  0.823251764848863  0.40564476379487074  0.8032637490163504  1.0000  -0.597351
N  N3  1.0  0.9462772776818981  0.6391225129702534  0.5796498542384134  1.0000  -0.601637
N  N4  1.0  0.6225920553165908  0.0738589826498045  0.7067172212080468  1.0000  -0.606263
O  O1  1.0  0.7984369886582372  0.5479255687632716  0.3858710168095812  1.0000  -0.648709
O  O2  1.0  0.15520032299059225  0.40906065461045094  0.6099158736102284  1.0000  -0.635765
O  O3  1.0  0.5582149888368289  0.20096458342351997  0.7384300724495955  1.0000  -0.632278
O  O4  1.0  0.46065583989448167  0.8208421197189981  0.25967286351469365  1.0000  -0.612225
O  O5  1.0  0.5345618853181209  0.789234614743863  0.381350019850822  1.0000  -0.641371
O  O6  1.0  0.4109295024367091  0.1578854152181385  0.6123069873579927  1.0000  -0.640908
O  O7  1.0  0.8230214626921636  0.46152620974980024  0.2626432376307453  1.0000  -0.613545
O  O8  1.0  0.20199918774608513  0.562090456085033  0.7337388524366926  1.0000  -0.611550
O  O9  1.0  0.609811446922798  0.40092233078937783  0.19270228622832555  1.0000  -0.965253
O  O10  1.0  0.3536793594019238  0.5243267666665841  0.7735159297866738  1.0000  -0.992969
O  O11  1.0  0.747633992832616  0.5754765274039908  0.21940155074586112  1.0000  -0.984464
O  O12  1.0  0.2081933415843695  0.41895468911124617  0.8060506500655281  1.0000  -0.964633
O  O13  1.0  0.4107888883239152  0.2067795846976455  0.80675710690836  1.0000  -0.965003
O  O14  1.0  0.5709809916229355  0.7412493558275991  0.2177238996703131  1.0000  -0.991931
O  O15  1.0  0.523016601284273  0.35442491202922466  0.7812375030792786  1.0000  -0.991417
O  O16  1.0  0.3945000562472673  0.6017384175998839  0.18573877073754536  1.0000  -0.961970
O  O17  1.0  0.6330770855166401  0.552090223468745  0.3990872834527767  1.0000  -0.661716
O  O18  1.0  0.14510092201673924  0.2288750401256676  0.6048144911680671  1.0000  -0.653635
O  O19  1.0  0.5897530171315906  0.20304253306414935  0.9109513994513527  1.0000  -0.647825
O  O20  1.0  0.4883420486565518  0.8068398070105254  0.08479484771931796  1.0000  -0.639106
O  O21  1.0  0.7188355321962387  0.399330680920897  0.9108901979443267  1.0000  -0.641878
O  O22  1.0  0.290071443652819  0.6766483794260432  0.08335313660330056  1.0000  -0.638754
O  O23  1.0  0.2281851470489049  0.1463627256939364  0.6058510627639441  1.0000  -0.651275
O  O24  1.0  0.5361048357278667  0.6199016592087803  0.3896429803284791  1.0000  -0.650154
O  O25  1.0  0.8086632778185738  0.4884926136914883  0.08123204955432635  1.0000  -0.638713
O  O26  1.0  0.20967935116858472  0.5982498105093663  0.9116909940760735  1.0000  -0.645847
O  O27  1.0  0.6799069236875582  0.2920219586987133  0.08274278154790682  1.0000  -0.643595
O  O28  1.0  0.4106345174488449  0.7263223012221389  0.914323736719579  1.0000  -0.639303
O  O29  1.0  0.5877411379258028  0.5872066376273853  0.2351026955980736  1.0000  -1.043704
O  O30  1.0  0.3495348044326887  0.35119361335532884  0.7556638547837956  1.0000  -1.045564
O  O31  1.0  0.5875397294802132  0.3844684159704925  0.0024509904658312934  1.0000  -1.022458
O  O32  1.0  0.3836917726513142  0.5872361986653815  0.9948127796860076  1.0000  -1.019117
