data_image0
_chemical_formula_structural       Ti8H34C48N6O36
_chemical_formula_sum              "Ti8 H34 C48 N6 O36"
_cell_length_a       16.037680110676014
_cell_length_b       16.328618521408895
_cell_length_c       16.106551738058073
_cell_angle_alpha    108.56132722293957
_cell_angle_beta     107.14914359102502
_cell_angle_gamma    112.2667801655827
_symmetry_space_group_name_H-M    "P 1"
_symmetry_Int_Tables_number       1

loop_
  _symmetry_equiv_pos_as_xyz
    x,y,z

loop_
  _atom_site_type_symbol
  _atom_site_label
  _atom_site_symmetry_multiplicity
  _atom_site_fract_x
  _atom_site_fract_y
  _atom_site_fract_z
  _atom_site_occupancy
  _atom_site_charge
Ti  Ti1  1.0  0.29636772407583767  0.5789956279234111  0.8604291104856627  1.0000  2.082031
Ti  Ti2  1.0  0.7119047629056103  0.42641911764840096  0.13781784052284343  1.0000  2.083052
Ti  Ti3  1.0  0.42842045990101546  0.2920969360548057  0.7175093469936096  1.0000  2.082604
Ti  Ti4  1.0  0.5776552029888032  0.7145974539376881  0.27971715483670084  1.0000  2.072873
Ti  Ti5  1.0  0.4248899612282636  0.7021734125348632  0.13452061956190448  1.0000  2.077721
Ti  Ti6  1.0  0.5646198348322935  0.28945235351889065  0.863582649589053  1.0000  2.074216
Ti  Ti7  1.0  0.2853342462948991  0.42466364362383946  0.7178277703938919  1.0000  2.079468
Ti  Ti8  1.0  0.701612351980156  0.5654887125104588  0.27605732571566793  1.0000  2.072423
H  H1  1.0  0.5344506756038615  0.376359483165092  0.5313103169898579  1.0000  0.117249
H  H2  1.0  0.17109186195112497  0.010760020124515952  0.5506261761838115  1.0000  0.127919
H  H3  1.0  0.8343799541110303  0.9851192503403264  0.447375977613976  1.0000  0.115214
H  H4  1.0  0.39191772011127296  0.8378993389902714  0.8473101981727011  1.0000  0.118399
H  H5  1.0  0.6116170901577783  0.1671825154298021  0.1598623275241786  1.0000  0.127164
H  H6  1.0  0.010215155822155724  0.4634480429075153  0.8375384217642213  1.0000  0.125357
H  H7  1.0  0.986339755630775  0.5327188978781927  0.15022929978091748  1.0000  0.116788
H  H8  1.0  0.4582772349283731  0.0008798401111613646  0.8407412831587483  1.0000  0.116168
H  H9  1.0  0.1568074174253889  0.620415260692605  0.15674354971899251  1.0000  0.116874
H  H10  1.0  0.6141009269435674  0.46297609756044883  0.44766803230373947  1.0000  0.116024
H  H11  1.0  0.379404082373409  0.5403426247337387  0.552849008762405  1.0000  0.125894
H  H12  1.0  0.9965376862006724  0.1557672407032343  0.5425874404756917  1.0000  0.117858
H  H13  1.0  0.3778398709733039  0.5395268276112455  0.9920734043174987  1.0000  0.430481
H  H14  1.0  0.6162281831280586  0.45628518256338896  0.0034087145637493625  1.0000  0.431406
H  H15  1.0  0.45755199985069145  0.46064607650926276  0.8318044554705861  1.0000  0.429332
H  H16  1.0  0.5365262051657951  0.5420853278645811  0.16220154419349037  1.0000  0.432927
H  H17  1.0  0.39735475784351776  0.07443414930703061  0.45835647815279684  1.0000  0.122498
H  H18  1.0  0.602634630669351  0.9215762908479617  0.5414040575150377  1.0000  0.126136
H  H19  1.0  0.06709896429736383  0.6123258480004511  0.6817183896303675  1.0000  0.129112
H  H20  1.0  0.9321561204215132  0.39037936454853944  0.322482448546865  1.0000  0.121094
H  H21  1.0  0.06500783915007873  0.3880419172915877  0.44992870276613117  1.0000  0.122722
H  H22  1.0  0.38793398741802093  0.9370554021557709  0.3217229026337799  1.0000  0.120359
H  H23  1.0  0.4039244769833535  0.6554682365537857  0.48882751514412665  1.0000  0.308057
H  H24  1.0  0.48441408574931083  0.6775857380151534  0.43409509808485564  1.0000  0.319473
H  H25  1.0  0.5250345887665276  0.9440985054321088  0.19215331231738453  1.0000  0.320157
H  H26  1.0  0.5981467314209591  0.07709648832612291  0.25033129466240983  1.0000  0.309797
H  H27  1.0  0.8300065254165192  0.35090290694561294  0.7472475876529662  1.0000  0.308683
H  H28  1.0  0.753294809991676  0.32726420377460386  0.8056924900927424  1.0000  0.315881
H  H29  1.0  0.08342581245056095  0.8312482377888432  0.4692145077399049  1.0000  0.309718
H  H30  1.0  0.9493264476592093  0.7543875993820499  0.4107729497910428  1.0000  0.319003
H  H31  1.0  0.9564693019607875  0.6721036057797466  0.6385736206209618  1.0000  0.314332
H  H32  1.0  0.8730594638500704  0.6296489674621096  0.5145058253481316  1.0000  0.325566
H  H33  1.0  0.6663027576193473  0.028890758463939355  0.7117507978986488  1.0000  0.314523
H  H34  1.0  0.6305738959331701  0.11690651719466212  0.7544759749470965  1.0000  0.324533
C  C1  1.0  0.8463422514111671  0.4991365751911632  0.3493392635749182  1.0000  0.640102
C  C2  1.0  0.15240825433837452  0.5016115135197252  0.6510442227237682  1.0000  0.641832
C  C3  1.0  0.5050181586041746  0.15646345477199133  0.6521096612404813  1.0000  0.641675
C  C4  1.0  0.4926889943287655  0.8410581838533209  0.3457083986449989  1.0000  0.634229
C  C5  1.0  0.9235591378847834  0.5014579763056716  0.42880936099535283  1.0000  -0.169218
C  C6  1.0  0.07314621439845362  0.5009448599141565  0.5732308084435248  1.0000  -0.007986
C  C7  1.0  0.5043329843533341  0.07584945716501998  0.5765109320043997  1.0000  -0.170867
C  C8  1.0  0.4955055612264934  0.9220228873416423  0.42502151390045967  1.0000  -0.006591
C  C9  1.0  0.9607396569836019  0.565616250024174  0.5321202901304667  1.0000  0.311636
C  C10  1.0  0.03564490240020947  0.43692388027917617  0.4715514022953897  1.0000  -0.144584
C  C11  1.0  0.5639671649752388  0.03254265516217012  0.6024631128029064  1.0000  0.311084
C  C12  1.0  0.4364163284620508  0.9643148182716799  0.3996325278321171  1.0000  -0.147890
C  C13  1.0  0.5575999652321105  0.9555217633378618  0.5240533125614517  1.0000  -0.226050
C  C14  1.0  0.4419013201343988  0.040011241923731795  0.47526810252137985  1.0000  -0.070841
C  C15  1.0  0.9622617277863497  0.4385223201555762  0.401601367603888  1.0000  -0.071642
C  C16  1.0  0.03654803742535541  0.5636977863205553  0.6025000034871686  1.0000  -0.223791
C  C17  1.0  0.5443552533099503  0.5520724940185976  0.45476414046218855  1.0000  -0.167748
C  C18  1.0  0.4521536294966843  0.45413230315259145  0.5460609476659563  1.0000  -0.009872
C  C19  1.0  0.9103681456954439  0.9019034480020283  0.4456536007032728  1.0000  -0.170611
C  C20  1.0  0.09256098015762933  0.09156878371346751  0.5512799476555517  1.0000  -0.007355
C  C21  1.0  0.5395456529671362  0.09269688071569525  0.0010076819710877997  1.0000  -0.011970
C  C22  1.0  0.4624947376606199  0.9098411517995126  0.006134454996272046  1.0000  -0.168477
C  C23  1.0  0.9020947159187942  0.44847994646162664  0.9913759010142753  1.0000  -0.169746
C  C24  1.0  0.09165888303842493  0.5463357649915918  0.9964784403049278  1.0000  -0.008325
C  C25  1.0  0.5916842652814706  0.5973289515771588  0.4024739008090338  1.0000  0.665592
C  C26  1.0  0.4041031021112419  0.4036525314661809  0.5962151876116636  1.0000  0.667596
C  C27  1.0  0.8124077314618015  0.8046009527674115  0.3885903904695325  1.0000  0.673722
C  C28  1.0  0.18991766193956316  0.19207533285713377  0.6092414383390679  1.0000  0.670888
C  C29  1.0  0.5805957293794959  0.19078075548353582  0.9998938545602497  1.0000  0.669900
C  C30  1.0  0.4212151313808792  0.8110473617185378  0.0033006495158600757  1.0000  0.672348
C  C31  1.0  0.8049475028311432  0.40167980291337396  0.9942096300493936  1.0000  0.669122
C  C32  1.0  0.19257677322780004  0.5955231264527815  0.9984366907726084  1.0000  0.664878
C  C33  1.0  0.4774213048018205  0.5761914575315993  0.485001029951372  1.0000  0.310982
C  C34  1.0  0.5192292724022228  0.4316116849295595  0.517602236674721  1.0000  -0.136266
C  C35  1.0  0.9089111437526751  0.9921317928141092  0.4708428268071668  1.0000  -0.067643
C  C36  1.0  0.09665455779957322  0.004140026726743354  0.5273643302838024  1.0000  -0.215766
C  C37  1.0  0.563264996006924  0.09421165074678592  0.09181670789418232  1.0000  -0.215376
C  C38  1.0  0.4399827672992617  0.910897969265355  0.9151671355041471  1.0000  -0.069900
C  C39  1.0  0.9928624476392801  0.5182500659065593  0.08228358760450344  1.0000  -0.066756
C  C40  1.0  0.003669279286331386  0.4782152891521888  0.9056307272666476  1.0000  -0.216077
C  C41  1.0  0.006554426636719106  0.9072574360813406  0.47451262750056294  1.0000  0.312142
C  C42  1.0  0.9978541926152391  0.08622093742016186  0.5230325641576921  1.0000  -0.137941
C  C43  1.0  0.5633656156901365  0.48005947974220464  0.47213947512172205  1.0000  -0.070638
C  C44  1.0  0.43166654538661875  0.5246119402428596  0.5298883291486821  1.0000  -0.211788
C  C45  1.0  0.906880320938807  0.42708126541184543  0.9000115886773529  1.0000  0.314001
C  C46  1.0  0.08689609758683894  0.5669989200156996  0.08630204214501154  1.0000  -0.135893
C  C47  1.0  0.4767366961941525  0.000260435445377721  0.9111129332862145  1.0000  -0.141896
C  C48  1.0  0.5253115763767356  0.0037246943144788507  0.09752014918235634  1.0000  0.316203
N  N1  1.0  0.45775686006819954  0.6470031225423349  0.47350759062468983  1.0000  -0.591060
N  N2  1.0  0.5489383323635127  0.009208235534035937  0.18806887272679748  1.0000  -0.584404
N  N3  1.0  0.8232959295256529  0.3592721410779927  0.8093894508581129  1.0000  -0.587110
N  N4  1.0  0.014440825184285543  0.8239144557981776  0.4541291913657275  1.0000  -0.587891
N  N5  1.0  0.926394057865403  0.6271105208973728  0.5649023723464925  1.0000  -0.596656
N  N6  1.0  0.6255198595916213  0.0616504329309757  0.6978156045857086  1.0000  -0.595680
O  O1  1.0  0.8133543920040853  0.5588657025530211  0.3738706593917108  1.0000  -0.621380
O  O2  1.0  0.17852550957025345  0.4372668557856875  0.6231165841019386  1.0000  -0.599223
O  O3  1.0  0.5634938518170886  0.19052586966056023  0.7445951772110893  1.0000  -0.624495
O  O4  1.0  0.4324341822552014  0.8079806312015974  0.2553519155583131  1.0000  -0.597924
O  O5  1.0  0.5517318622747477  0.8090117313586117  0.3731499569860596  1.0000  -0.619603
O  O6  1.0  0.44855658119204117  0.19051472465318192  0.6241896887479236  1.0000  -0.608328
O  O7  1.0  0.8147799275510936  0.4383430980910611  0.25847699552539244  1.0000  -0.613956
O  O8  1.0  0.18988291145529076  0.5665526706021136  0.7417773422466593  1.0000  -0.611087
O  O9  1.0  0.6280995116229239  0.4307291767225671  0.1993751380074073  1.0000  -0.958131
O  O10  1.0  0.3696572274033361  0.5635384469179089  0.7939638891045048  1.0000  -0.967434
O  O11  1.0  0.764968952491234  0.5617289023493924  0.1945806710427944  1.0000  -0.970646
O  O12  1.0  0.23295954144006426  0.43984371508536135  0.8051940386273352  1.0000  -0.967647
O  O13  1.0  0.42645060369484866  0.22624691690055249  0.7927116975564236  1.0000  -0.952528
O  O14  1.0  0.5681994721017397  0.7742579457567546  0.20301431789245192  1.0000  -0.960356
O  O15  1.0  0.5651867246243792  0.37437206686128316  0.8095029969185552  1.0000  -0.986568
O  O16  1.0  0.4359487704764542  0.6242939455199181  0.19074964734233385  1.0000  -0.986118
O  O17  1.0  0.6520134667757612  0.572727644463033  0.37973030980299877  1.0000  -0.660987
O  O18  1.0  0.3367859034624685  0.4184077983463871  0.6123118146186195  1.0000  -0.640858
O  O19  1.0  0.8121924003614808  0.7223001506684137  0.3655640452523404  1.0000  -0.628526
O  O20  1.0  0.18440980222601408  0.27110806587820274  0.6373163700189683  1.0000  -0.623143
O  O21  1.0  0.5528105552797379  0.1883629885292401  0.9160241704799794  1.0000  -0.632312
O  O22  1.0  0.4385945559242077  0.8078205182559647  0.08443938058169553  1.0000  -0.627366
O  O23  1.0  0.7215802429671111  0.34020051075935537  0.9121936920091869  1.0000  -0.649109
O  O24  1.0  0.27224789069729455  0.6485195395156086  0.08346069062750379  1.0000  -0.641908
O  O25  1.0  0.7290498120880188  0.8053815897654105  0.3629975096238507  1.0000  -0.647438
O  O26  1.0  0.27361713721257647  0.1940641828696344  0.6285836633191632  1.0000  -0.627065
O  O27  1.0  0.5704960476475417  0.6583561350328716  0.3811141563503067  1.0000  -0.643022
O  O28  1.0  0.4345927394985769  0.34909062591178436  0.62056066942724  1.0000  -0.639894
O  O29  1.0  0.8075495391248971  0.42460457321378053  0.07907282125611552  1.0000  -0.650529
O  O30  1.0  0.19389426490894962  0.5814789401628303  0.9169057625791549  1.0000  -0.634964
O  O31  1.0  0.6408639710664771  0.2718143853462703  0.08256229256462046  1.0000  -0.628045
O  O32  1.0  0.3691937236886023  0.7307398707289681  0.9187150418555213  1.0000  -0.641985
O  O33  1.0  0.602692114594066  0.6023226113437254  0.21282324262149893  1.0000  -1.015128
O  O34  1.0  0.39440344644688663  0.3966081266325612  0.7820249682985141  1.0000  -1.016904
O  O35  1.0  0.609722463228649  0.3940001051929368  0.001615291143736601  1.0000  -1.016592
O  O36  1.0  0.3886772801153305  0.6040124510303793  0.9969124185674301  1.0000  -1.015513
